version 3
run EDVRPScalability-10-20250705-23:43:26-96628
attr configname EDVRPScalability
attr datetime 20250705-23:43:26
attr datetimef 20250705-234326
attr experiment EDVRPScalability
attr inifile omnetpp.ini
attr iterationvars $N=20
attr iterationvarsd N=20
attr iterationvarsf N=20-
attr measurement $N=20
attr network edvrp.simulations.EDVRPScalabilityNetwork
attr processid 96628
attr repetition 1
attr replication #1
attr resultdir results
attr runnumber 10
attr seedset 1
itervar N 20
config description "EDVRP scalability test with variable number of routers"
config network edvrp.simulations.EDVRPScalabilityNetwork
config sim-time-limit 500s
config repeat 3
config **.numRouters 20
config **.router*.helloInterval 3s
config **.router*.holdTimeout 12s
config **.router*.routeTimeout 25s
config **.router*.updateInterval 8s
config network edvrp.simulations.EDVRPTestNetwork
config sim-time-limit 300s
config seed-set 1
config num-rngs 3
config rng-class cMersenneTwister
config output-scalar-file results/EDVRPScalability-10.sca
config output-vector-file results/EDVRPScalability-10.vec
config eventlog-file results/EDVRPScalability-10.elog
config **.scalar-recording true
config **.vector-recording true
config **.router*.convergenceTimeSignal.result-recording-modes +histogram,+stats
config **.router*.routingTableSizeSignal.result-recording-modes +vector,+stats
config **.router*.messageCountSignal.result-recording-modes +count,+sum
config debug-on-errors true
config print-undisposed true

scalar EDVRPScalabilityNetwork.router[11] helloMessagesSent 2
scalar EDVRPScalabilityNetwork.router[12] routingTableUpdates 1
scalar EDVRPScalabilityNetwork.router[12] currentTableSize 2
scalar EDVRPScalabilityNetwork.router[10] routingTableUpdates 1
scalar EDVRPScalabilityNetwork.router[10] currentTableSize 2
scalar EDVRPScalabilityNetwork.router[15] helloMessagesSent 2
scalar EDVRPScalabilityNetwork.router[16] routingTableUpdates 1
scalar EDVRPScalabilityNetwork.router[16] currentTableSize 2
scalar EDVRPScalabilityNetwork.router[14] routingTableUpdates 1
scalar EDVRPScalabilityNetwork.router[14] currentTableSize 2
scalar EDVRPScalabilityNetwork.router[4] helloMessagesSent 3
scalar EDVRPScalabilityNetwork.router[3] routingTableUpdates 1
scalar EDVRPScalabilityNetwork.router[3] currentTableSize 2
scalar EDVRPScalabilityNetwork.router[5] routingTableUpdates 1
scalar EDVRPScalabilityNetwork.router[5] currentTableSize 2
scalar EDVRPScalabilityNetwork.router[1] routingTableUpdates 1
scalar EDVRPScalabilityNetwork.router[1] currentTableSize 2
scalar EDVRPScalabilityNetwork.router[3] helloMessagesSent 3
scalar EDVRPScalabilityNetwork.router[4] routingTableUpdates 1
scalar EDVRPScalabilityNetwork.router[4] currentTableSize 2
scalar EDVRPScalabilityNetwork.router[2] routingTableUpdates 1
scalar EDVRPScalabilityNetwork.router[2] currentTableSize 2
scalar EDVRPScalabilityNetwork.router[0] routingTableUpdates 1
scalar EDVRPScalabilityNetwork.router[0] currentTableSize 2
scalar EDVRPScalabilityNetwork.router[10] helloMessagesSent 2
scalar EDVRPScalabilityNetwork.router[9] routingTableUpdates 1
scalar EDVRPScalabilityNetwork.router[9] currentTableSize 2
scalar EDVRPScalabilityNetwork.router[11] routingTableUpdates 1
scalar EDVRPScalabilityNetwork.router[11] currentTableSize 2
scalar EDVRPScalabilityNetwork.router[6] helloMessagesSent 2
scalar EDVRPScalabilityNetwork.router[5] routingTableUpdates 1
scalar EDVRPScalabilityNetwork.router[5] currentTableSize 3
scalar EDVRPScalabilityNetwork.router[7] routingTableUpdates 1
scalar EDVRPScalabilityNetwork.router[7] currentTableSize 2
scalar EDVRPScalabilityNetwork.router[4] routingTableUpdates 1
scalar EDVRPScalabilityNetwork.router[4] currentTableSize 3
scalar EDVRPScalabilityNetwork.router[6] routingTableUpdates 1
scalar EDVRPScalabilityNetwork.router[6] currentTableSize 2
scalar EDVRPScalabilityNetwork.router[5] helloMessagesSent 3
scalar EDVRPScalabilityNetwork.router[4] routingTableUpdates 1
scalar EDVRPScalabilityNetwork.router[4] currentTableSize 4
scalar EDVRPScalabilityNetwork.router[6] routingTableUpdates 1
scalar EDVRPScalabilityNetwork.router[6] currentTableSize 3
scalar EDVRPScalabilityNetwork.router[2] routingTableUpdates 1
scalar EDVRPScalabilityNetwork.router[2] currentTableSize 3
scalar EDVRPScalabilityNetwork.router[3] routingTableUpdates 1
scalar EDVRPScalabilityNetwork.router[3] currentTableSize 3
scalar EDVRPScalabilityNetwork.router[3] routingTableUpdates 1
scalar EDVRPScalabilityNetwork.router[3] currentTableSize 4
scalar EDVRPScalabilityNetwork.router[5] routingTableUpdates 1
scalar EDVRPScalabilityNetwork.router[5] currentTableSize 4
scalar EDVRPScalabilityNetwork.router[9] helloMessagesSent 2
scalar EDVRPScalabilityNetwork.router[10] routingTableUpdates 1
scalar EDVRPScalabilityNetwork.router[10] currentTableSize 3
scalar EDVRPScalabilityNetwork.router[8] routingTableUpdates 1
scalar EDVRPScalabilityNetwork.router[8] currentTableSize 2
scalar EDVRPScalabilityNetwork.router[0] helloMessagesSent 2
scalar EDVRPScalabilityNetwork.router[1] routingTableUpdates 1
scalar EDVRPScalabilityNetwork.router[1] currentTableSize 3
scalar EDVRPScalabilityNetwork.router[3] routingTableUpdates 1
scalar EDVRPScalabilityNetwork.router[3] currentTableSize 5
scalar EDVRPScalabilityNetwork.router[2] helloMessagesSent 3
scalar EDVRPScalabilityNetwork.router[1] routingTableUpdates 1
scalar EDVRPScalabilityNetwork.router[1] currentTableSize 4
scalar EDVRPScalabilityNetwork.router[3] routingTableUpdates 1
scalar EDVRPScalabilityNetwork.router[3] currentTableSize 6
scalar EDVRPScalabilityNetwork.router[5] routingTableUpdates 1
scalar EDVRPScalabilityNetwork.router[5] currentTableSize 5
scalar EDVRPScalabilityNetwork.router[9] routingTableUpdates 1
scalar EDVRPScalabilityNetwork.router[9] currentTableSize 3
scalar EDVRPScalabilityNetwork.router[11] routingTableUpdates 1
scalar EDVRPScalabilityNetwork.router[11] currentTableSize 3
scalar EDVRPScalabilityNetwork.router[4] routingTableUpdates 1
scalar EDVRPScalabilityNetwork.router[4] currentTableSize 5
scalar EDVRPScalabilityNetwork.router[4] routingTableUpdates 1
scalar EDVRPScalabilityNetwork.router[4] currentTableSize 6
scalar EDVRPScalabilityNetwork.router[2] routingTableUpdates 1
scalar EDVRPScalabilityNetwork.router[2] currentTableSize 4
scalar EDVRPScalabilityNetwork.router[2] routingTableUpdates 1
scalar EDVRPScalabilityNetwork.router[2] currentTableSize 5
scalar EDVRPScalabilityNetwork.router[2] routingTableUpdates 1
scalar EDVRPScalabilityNetwork.router[2] currentTableSize 6
scalar EDVRPScalabilityNetwork.router[0] routingTableUpdates 1
scalar EDVRPScalabilityNetwork.router[0] currentTableSize 3
scalar EDVRPScalabilityNetwork.router[0] routingTableUpdates 1
scalar EDVRPScalabilityNetwork.router[0] currentTableSize 4
scalar EDVRPScalabilityNetwork.router[0] routingTableUpdates 1
scalar EDVRPScalabilityNetwork.router[0] currentTableSize 5
scalar EDVRPScalabilityNetwork.router[0] routingTableUpdates 1
scalar EDVRPScalabilityNetwork.router[0] currentTableSize 6
scalar EDVRPScalabilityNetwork.router[18] helloMessagesSent 2
scalar EDVRPScalabilityNetwork.router[17] routingTableUpdates 1
scalar EDVRPScalabilityNetwork.router[17] currentTableSize 2
scalar EDVRPScalabilityNetwork.router[19] routingTableUpdates 1
scalar EDVRPScalabilityNetwork.router[19] currentTableSize 2
scalar EDVRPScalabilityNetwork.router[13] helloMessagesSent 2
scalar EDVRPScalabilityNetwork.router[14] routingTableUpdates 1
scalar EDVRPScalabilityNetwork.router[14] currentTableSize 3
scalar EDVRPScalabilityNetwork.router[12] routingTableUpdates 1
scalar EDVRPScalabilityNetwork.router[12] currentTableSize 3
scalar EDVRPScalabilityNetwork.router[4] routingTableUpdates 1
scalar EDVRPScalabilityNetwork.router[4] currentTableSize 6
scalar EDVRPScalabilityNetwork.router[6] routingTableUpdates 1
scalar EDVRPScalabilityNetwork.router[6] currentTableSize 4
scalar EDVRPScalabilityNetwork.router[6] routingTableUpdates 1
scalar EDVRPScalabilityNetwork.router[6] currentTableSize 5
scalar EDVRPScalabilityNetwork.router[2] routingTableUpdates 1
scalar EDVRPScalabilityNetwork.router[2] currentTableSize 6
scalar EDVRPScalabilityNetwork.router[2] routingTableUpdates 1
scalar EDVRPScalabilityNetwork.router[2] currentTableSize 6
scalar EDVRPScalabilityNetwork.router[15] routingTableUpdates 1
scalar EDVRPScalabilityNetwork.router[15] currentTableSize 2
scalar EDVRPScalabilityNetwork.router[13] routingTableUpdates 1
scalar EDVRPScalabilityNetwork.router[13] currentTableSize 2
scalar EDVRPScalabilityNetwork.router[17] helloMessagesSent 2
scalar EDVRPScalabilityNetwork.router[16] routingTableUpdates 1
scalar EDVRPScalabilityNetwork.router[16] currentTableSize 3
scalar EDVRPScalabilityNetwork.router[18] routingTableUpdates 1
scalar EDVRPScalabilityNetwork.router[18] currentTableSize 2
scalar EDVRPScalabilityNetwork.router[1] helloMessagesSent 3
scalar EDVRPScalabilityNetwork.router[2] routingTableUpdates 1
scalar EDVRPScalabilityNetwork.router[2] currentTableSize 7
scalar EDVRPScalabilityNetwork.router[0] routingTableUpdates 1
scalar EDVRPScalabilityNetwork.router[0] currentTableSize 7
scalar EDVRPScalabilityNetwork.router[4] routingTableUpdates 1
scalar EDVRPScalabilityNetwork.router[4] currentTableSize 7
scalar EDVRPScalabilityNetwork.router[1] routingTableUpdates 1
scalar EDVRPScalabilityNetwork.router[1] currentTableSize 5
scalar EDVRPScalabilityNetwork.router[1] routingTableUpdates 1
scalar EDVRPScalabilityNetwork.router[1] currentTableSize 6
scalar EDVRPScalabilityNetwork.router[1] routingTableUpdates 1
scalar EDVRPScalabilityNetwork.router[1] currentTableSize 7
scalar EDVRPScalabilityNetwork.router[3] routingTableUpdates 1
scalar EDVRPScalabilityNetwork.router[3] currentTableSize 7
scalar EDVRPScalabilityNetwork.router[3] routingTableUpdates 1
scalar EDVRPScalabilityNetwork.router[3] currentTableSize 7
scalar EDVRPScalabilityNetwork.router[5] routingTableUpdates 1
scalar EDVRPScalabilityNetwork.router[5] currentTableSize 6
scalar EDVRPScalabilityNetwork.router[5] routingTableUpdates 1
scalar EDVRPScalabilityNetwork.router[5] currentTableSize 7
scalar EDVRPScalabilityNetwork.router[5] routingTableUpdates 1
scalar EDVRPScalabilityNetwork.router[5] currentTableSize 7
scalar EDVRPScalabilityNetwork.router[1] routingTableUpdates 1
scalar EDVRPScalabilityNetwork.router[1] currentTableSize 7
scalar EDVRPScalabilityNetwork.router[14] helloMessagesSent 2
scalar EDVRPScalabilityNetwork.router[3] routingTableUpdates 1
scalar EDVRPScalabilityNetwork.router[3] currentTableSize 7
scalar EDVRPScalabilityNetwork.router[15] routingTableUpdates 1
scalar EDVRPScalabilityNetwork.router[15] currentTableSize 3
scalar EDVRPScalabilityNetwork.router[13] routingTableUpdates 1
scalar EDVRPScalabilityNetwork.router[13] currentTableSize 3
scalar EDVRPScalabilityNetwork.router[12] helloMessagesSent 2
scalar EDVRPScalabilityNetwork.router[11] routingTableUpdates 1
scalar EDVRPScalabilityNetwork.router[11] currentTableSize 4
scalar EDVRPScalabilityNetwork.router[13] routingTableUpdates 1
scalar EDVRPScalabilityNetwork.router[13] currentTableSize 4
scalar EDVRPScalabilityNetwork.router[0] routingTableUpdates 1
scalar EDVRPScalabilityNetwork.router[0] currentTableSize 7
scalar EDVRPScalabilityNetwork.router[1] routingTableUpdates 1
scalar EDVRPScalabilityNetwork.router[1] currentTableSize 7
scalar EDVRPScalabilityNetwork.router[14] routingTableUpdates 1
scalar EDVRPScalabilityNetwork.router[14] currentTableSize 4
scalar EDVRPScalabilityNetwork.router[12] routingTableUpdates 1
scalar EDVRPScalabilityNetwork.router[12] currentTableSize 4
scalar EDVRPScalabilityNetwork.router[12] routingTableUpdates 1
scalar EDVRPScalabilityNetwork.router[12] currentTableSize 5
scalar EDVRPScalabilityNetwork.router[16] helloMessagesSent 2
scalar EDVRPScalabilityNetwork.router[15] routingTableUpdates 1
scalar EDVRPScalabilityNetwork.router[15] currentTableSize 4
scalar EDVRPScalabilityNetwork.router[17] routingTableUpdates 1
scalar EDVRPScalabilityNetwork.router[17] currentTableSize 3
scalar EDVRPScalabilityNetwork.router[15] routingTableUpdates 1
scalar EDVRPScalabilityNetwork.router[15] currentTableSize 5
scalar EDVRPScalabilityNetwork.router[17] routingTableUpdates 1
scalar EDVRPScalabilityNetwork.router[17] currentTableSize 4
scalar EDVRPScalabilityNetwork.router[16] routingTableUpdates 1
scalar EDVRPScalabilityNetwork.router[16] currentTableSize 4
scalar EDVRPScalabilityNetwork.router[18] routingTableUpdates 1
scalar EDVRPScalabilityNetwork.router[18] currentTableSize 3
scalar EDVRPScalabilityNetwork.router[18] routingTableUpdates 1
scalar EDVRPScalabilityNetwork.router[18] currentTableSize 4
scalar EDVRPScalabilityNetwork.router[7] helloMessagesSent 2
scalar EDVRPScalabilityNetwork.router[8] routingTableUpdates 1
scalar EDVRPScalabilityNetwork.router[8] currentTableSize 3
scalar EDVRPScalabilityNetwork.router[6] routingTableUpdates 1
scalar EDVRPScalabilityNetwork.router[6] currentTableSize 6
scalar EDVRPScalabilityNetwork.router[16] routingTableUpdates 1
scalar EDVRPScalabilityNetwork.router[16] currentTableSize 5
scalar EDVRPScalabilityNetwork.router[16] routingTableUpdates 1
scalar EDVRPScalabilityNetwork.router[16] currentTableSize 6
scalar EDVRPScalabilityNetwork.router[14] routingTableUpdates 1
scalar EDVRPScalabilityNetwork.router[14] currentTableSize 5
scalar EDVRPScalabilityNetwork.router[14] routingTableUpdates 1
scalar EDVRPScalabilityNetwork.router[14] currentTableSize 6
scalar EDVRPScalabilityNetwork.router[11] routingTableUpdates 1
scalar EDVRPScalabilityNetwork.router[11] currentTableSize 5
scalar EDVRPScalabilityNetwork.router[11] routingTableUpdates 1
scalar EDVRPScalabilityNetwork.router[11] currentTableSize 6
scalar EDVRPScalabilityNetwork.router[11] routingTableUpdates 1
scalar EDVRPScalabilityNetwork.router[11] currentTableSize 7
scalar EDVRPScalabilityNetwork.router[13] routingTableUpdates 1
scalar EDVRPScalabilityNetwork.router[13] currentTableSize 5
scalar EDVRPScalabilityNetwork.router[19] helloMessagesSent 1
scalar EDVRPScalabilityNetwork.router[18] routingTableUpdates 1
scalar EDVRPScalabilityNetwork.router[18] currentTableSize 5
scalar EDVRPScalabilityNetwork.router[8] helloMessagesSent 2
scalar EDVRPScalabilityNetwork.router[7] routingTableUpdates 1
scalar EDVRPScalabilityNetwork.router[7] currentTableSize 3
scalar EDVRPScalabilityNetwork.router[9] routingTableUpdates 1
scalar EDVRPScalabilityNetwork.router[9] currentTableSize 4
scalar EDVRPScalabilityNetwork.router[17] routingTableUpdates 1
scalar EDVRPScalabilityNetwork.router[17] currentTableSize 5
scalar EDVRPScalabilityNetwork.router[19] routingTableUpdates 1
scalar EDVRPScalabilityNetwork.router[19] currentTableSize 3
scalar EDVRPScalabilityNetwork.router[19] routingTableUpdates 1
scalar EDVRPScalabilityNetwork.router[19] currentTableSize 4
scalar EDVRPScalabilityNetwork.router[19] routingTableUpdates 1
scalar EDVRPScalabilityNetwork.router[19] currentTableSize 5
scalar EDVRPScalabilityNetwork.router[15] routingTableUpdates 1
scalar EDVRPScalabilityNetwork.router[15] currentTableSize 6
scalar EDVRPScalabilityNetwork.router[13] routingTableUpdates 1
scalar EDVRPScalabilityNetwork.router[13] currentTableSize 6
scalar EDVRPScalabilityNetwork.router[13] routingTableUpdates 1
scalar EDVRPScalabilityNetwork.router[13] currentTableSize 7
scalar EDVRPScalabilityNetwork.router[12] routingTableUpdates 1
scalar EDVRPScalabilityNetwork.router[12] currentTableSize 6
scalar EDVRPScalabilityNetwork.router[12] routingTableUpdates 1
scalar EDVRPScalabilityNetwork.router[12] currentTableSize 7
scalar EDVRPScalabilityNetwork.router[10] routingTableUpdates 1
scalar EDVRPScalabilityNetwork.router[10] currentTableSize 4
scalar EDVRPScalabilityNetwork.router[10] routingTableUpdates 1
scalar EDVRPScalabilityNetwork.router[10] currentTableSize 5
scalar EDVRPScalabilityNetwork.router[10] routingTableUpdates 1
scalar EDVRPScalabilityNetwork.router[10] currentTableSize 6
scalar EDVRPScalabilityNetwork.router[10] routingTableUpdates 1
scalar EDVRPScalabilityNetwork.router[10] currentTableSize 7
scalar EDVRPScalabilityNetwork.router[5] routingTableUpdates 1
scalar EDVRPScalabilityNetwork.router[5] currentTableSize 8
scalar EDVRPScalabilityNetwork.router[7] routingTableUpdates 1
scalar EDVRPScalabilityNetwork.router[7] currentTableSize 4
scalar EDVRPScalabilityNetwork.router[7] routingTableUpdates 1
scalar EDVRPScalabilityNetwork.router[7] currentTableSize 5
scalar EDVRPScalabilityNetwork.router[7] routingTableUpdates 1
scalar EDVRPScalabilityNetwork.router[7] currentTableSize 6
scalar EDVRPScalabilityNetwork.router[7] routingTableUpdates 1
scalar EDVRPScalabilityNetwork.router[7] currentTableSize 7
scalar EDVRPScalabilityNetwork.router[0] routingTableUpdates 1
scalar EDVRPScalabilityNetwork.router[0] currentTableSize 7
scalar EDVRPScalabilityNetwork.router[4] routingTableUpdates 1
scalar EDVRPScalabilityNetwork.router[4] currentTableSize 8
scalar EDVRPScalabilityNetwork.router[6] routingTableUpdates 1
scalar EDVRPScalabilityNetwork.router[6] currentTableSize 7
scalar EDVRPScalabilityNetwork.router[6] routingTableUpdates 1
scalar EDVRPScalabilityNetwork.router[6] currentTableSize 8
scalar EDVRPScalabilityNetwork.router[6] routingTableUpdates 1
scalar EDVRPScalabilityNetwork.router[6] currentTableSize 8
scalar EDVRPScalabilityNetwork.router[2] routingTableUpdates 1
scalar EDVRPScalabilityNetwork.router[2] currentTableSize 8
scalar EDVRPScalabilityNetwork.router[15] routingTableUpdates 1
scalar EDVRPScalabilityNetwork.router[15] currentTableSize 7
scalar EDVRPScalabilityNetwork.router[17] routingTableUpdates 1
scalar EDVRPScalabilityNetwork.router[17] currentTableSize 6
scalar EDVRPScalabilityNetwork.router[17] routingTableUpdates 1
scalar EDVRPScalabilityNetwork.router[17] currentTableSize 7
scalar EDVRPScalabilityNetwork.router[9] routingTableUpdates 1
scalar EDVRPScalabilityNetwork.router[9] currentTableSize 5
scalar EDVRPScalabilityNetwork.router[9] routingTableUpdates 1
scalar EDVRPScalabilityNetwork.router[9] currentTableSize 6
scalar EDVRPScalabilityNetwork.router[9] routingTableUpdates 1
scalar EDVRPScalabilityNetwork.router[9] currentTableSize 7
scalar EDVRPScalabilityNetwork.router[9] routingTableUpdates 1
scalar EDVRPScalabilityNetwork.router[9] currentTableSize 8
scalar EDVRPScalabilityNetwork.router[7] routingTableUpdates 1
scalar EDVRPScalabilityNetwork.router[7] currentTableSize 8
scalar EDVRPScalabilityNetwork.router[9] routingTableUpdates 1
scalar EDVRPScalabilityNetwork.router[9] currentTableSize 9
scalar EDVRPScalabilityNetwork.router[14] routingTableUpdates 1
scalar EDVRPScalabilityNetwork.router[14] currentTableSize 7
scalar EDVRPScalabilityNetwork.router[12] routingTableUpdates 1
scalar EDVRPScalabilityNetwork.router[12] currentTableSize 8
scalar EDVRPScalabilityNetwork.router[12] routingTableUpdates 1
scalar EDVRPScalabilityNetwork.router[12] currentTableSize 9
scalar EDVRPScalabilityNetwork.router[3] routingTableUpdates 1
scalar EDVRPScalabilityNetwork.router[3] currentTableSize 8
scalar EDVRPScalabilityNetwork.router[1] routingTableUpdates 1
scalar EDVRPScalabilityNetwork.router[1] currentTableSize 8
scalar EDVRPScalabilityNetwork.router[10] routingTableUpdates 1
scalar EDVRPScalabilityNetwork.router[10] currentTableSize 8
scalar EDVRPScalabilityNetwork.router[10] routingTableUpdates 1
scalar EDVRPScalabilityNetwork.router[10] currentTableSize 9
scalar EDVRPScalabilityNetwork.router[8] routingTableUpdates 1
scalar EDVRPScalabilityNetwork.router[8] currentTableSize 4
scalar EDVRPScalabilityNetwork.router[8] routingTableUpdates 1
scalar EDVRPScalabilityNetwork.router[8] currentTableSize 5
scalar EDVRPScalabilityNetwork.router[8] routingTableUpdates 1
scalar EDVRPScalabilityNetwork.router[8] currentTableSize 6
scalar EDVRPScalabilityNetwork.router[8] routingTableUpdates 1
scalar EDVRPScalabilityNetwork.router[8] currentTableSize 7
scalar EDVRPScalabilityNetwork.router[8] routingTableUpdates 1
scalar EDVRPScalabilityNetwork.router[8] currentTableSize 8
scalar EDVRPScalabilityNetwork.router[8] routingTableUpdates 1
scalar EDVRPScalabilityNetwork.router[8] currentTableSize 9
scalar EDVRPScalabilityNetwork.router[11] routingTableUpdates 1
scalar EDVRPScalabilityNetwork.router[11] currentTableSize 8
scalar EDVRPScalabilityNetwork.router[11] routingTableUpdates 1
scalar EDVRPScalabilityNetwork.router[11] currentTableSize 9
scalar EDVRPScalabilityNetwork.router[13] routingTableUpdates 1
scalar EDVRPScalabilityNetwork.router[13] currentTableSize 8
scalar EDVRPScalabilityNetwork.router[13] routingTableUpdates 1
scalar EDVRPScalabilityNetwork.router[13] currentTableSize 9
scalar EDVRPScalabilityNetwork.router[8] routingTableUpdates 1
scalar EDVRPScalabilityNetwork.router[8] currentTableSize 10
scalar EDVRPScalabilityNetwork.router[8] routingTableUpdates 1
scalar EDVRPScalabilityNetwork.router[8] currentTableSize 11
scalar EDVRPScalabilityNetwork.router[8] routingTableUpdates 1
scalar EDVRPScalabilityNetwork.router[8] currentTableSize 12
scalar EDVRPScalabilityNetwork.router[8] routingTableUpdates 1
scalar EDVRPScalabilityNetwork.router[8] currentTableSize 13
scalar EDVRPScalabilityNetwork.router[8] routingTableUpdates 1
scalar EDVRPScalabilityNetwork.router[8] currentTableSize 14
scalar EDVRPScalabilityNetwork.router[6] routingTableUpdates 1
scalar EDVRPScalabilityNetwork.router[6] currentTableSize 9
scalar EDVRPScalabilityNetwork.router[6] routingTableUpdates 1
scalar EDVRPScalabilityNetwork.router[6] currentTableSize 10
scalar EDVRPScalabilityNetwork.router[1] routingTableUpdates 1
scalar EDVRPScalabilityNetwork.router[1] currentTableSize 8
scalar EDVRPScalabilityNetwork.router[3] routingTableUpdates 1
scalar EDVRPScalabilityNetwork.router[3] currentTableSize 8
scalar EDVRPScalabilityNetwork.router[16] routingTableUpdates 1
scalar EDVRPScalabilityNetwork.router[16] currentTableSize 7
scalar EDVRPScalabilityNetwork.router[14] routingTableUpdates 1
scalar EDVRPScalabilityNetwork.router[14] currentTableSize 8
scalar EDVRPScalabilityNetwork.router[16] routingTableUpdates 1
scalar EDVRPScalabilityNetwork.router[16] currentTableSize 8
scalar EDVRPScalabilityNetwork.router[18] routingTableUpdates 1
scalar EDVRPScalabilityNetwork.router[18] currentTableSize 6
scalar EDVRPScalabilityNetwork.router[18] routingTableUpdates 1
scalar EDVRPScalabilityNetwork.router[18] currentTableSize 7
scalar EDVRPScalabilityNetwork.router[0] routingTableUpdates 1
scalar EDVRPScalabilityNetwork.router[0] currentTableSize 8
scalar EDVRPScalabilityNetwork.router[11] routingTableUpdates 1
scalar EDVRPScalabilityNetwork.router[11] currentTableSize 10
scalar EDVRPScalabilityNetwork.router[11] routingTableUpdates 1
scalar EDVRPScalabilityNetwork.router[11] currentTableSize 11
scalar EDVRPScalabilityNetwork.router[5] routingTableUpdates 1
scalar EDVRPScalabilityNetwork.router[5] currentTableSize 9
scalar EDVRPScalabilityNetwork.router[5] routingTableUpdates 1
scalar EDVRPScalabilityNetwork.router[5] currentTableSize 10
scalar EDVRPScalabilityNetwork.router[7] routingTableUpdates 1
scalar EDVRPScalabilityNetwork.router[7] currentTableSize 9
scalar EDVRPScalabilityNetwork.router[7] routingTableUpdates 1
scalar EDVRPScalabilityNetwork.router[7] currentTableSize 10
scalar EDVRPScalabilityNetwork.router[7] routingTableUpdates 1
scalar EDVRPScalabilityNetwork.router[7] currentTableSize 10
scalar EDVRPScalabilityNetwork.router[7] routingTableUpdates 1
scalar EDVRPScalabilityNetwork.router[7] currentTableSize 11
scalar EDVRPScalabilityNetwork.router[7] routingTableUpdates 1
scalar EDVRPScalabilityNetwork.router[7] currentTableSize 12
scalar EDVRPScalabilityNetwork.router[7] routingTableUpdates 1
scalar EDVRPScalabilityNetwork.router[7] currentTableSize 13
scalar EDVRPScalabilityNetwork.router[7] routingTableUpdates 1
scalar EDVRPScalabilityNetwork.router[7] currentTableSize 14
scalar EDVRPScalabilityNetwork.router[7] routingTableUpdates 1
scalar EDVRPScalabilityNetwork.router[7] currentTableSize 15
scalar EDVRPScalabilityNetwork.router[7] routingTableUpdates 1
scalar EDVRPScalabilityNetwork.router[7] currentTableSize 16
scalar EDVRPScalabilityNetwork.router[9] routingTableUpdates 1
scalar EDVRPScalabilityNetwork.router[9] currentTableSize 10
scalar EDVRPScalabilityNetwork.router[9] routingTableUpdates 1
scalar EDVRPScalabilityNetwork.router[9] currentTableSize 11
scalar EDVRPScalabilityNetwork.router[9] routingTableUpdates 1
scalar EDVRPScalabilityNetwork.router[9] currentTableSize 12
scalar EDVRPScalabilityNetwork.router[9] routingTableUpdates 1
scalar EDVRPScalabilityNetwork.router[9] currentTableSize 13
scalar EDVRPScalabilityNetwork.router[9] routingTableUpdates 1
scalar EDVRPScalabilityNetwork.router[9] currentTableSize 14
scalar EDVRPScalabilityNetwork.router[14] routingTableUpdates 1
scalar EDVRPScalabilityNetwork.router[14] currentTableSize 9
scalar EDVRPScalabilityNetwork.router[14] routingTableUpdates 1
scalar EDVRPScalabilityNetwork.router[14] currentTableSize 10
scalar EDVRPScalabilityNetwork.router[15] routingTableUpdates 1
scalar EDVRPScalabilityNetwork.router[15] currentTableSize 8
scalar EDVRPScalabilityNetwork.router[15] routingTableUpdates 1
scalar EDVRPScalabilityNetwork.router[15] currentTableSize 9
scalar EDVRPScalabilityNetwork.router[15] routingTableUpdates 1
scalar EDVRPScalabilityNetwork.router[15] currentTableSize 10
scalar EDVRPScalabilityNetwork.router[13] routingTableUpdates 1
scalar EDVRPScalabilityNetwork.router[13] currentTableSize 10
scalar EDVRPScalabilityNetwork.router[10] routingTableUpdates 1
scalar EDVRPScalabilityNetwork.router[10] currentTableSize 10
scalar EDVRPScalabilityNetwork.router[10] routingTableUpdates 1
scalar EDVRPScalabilityNetwork.router[10] currentTableSize 11
scalar EDVRPScalabilityNetwork.router[10] routingTableUpdates 1
scalar EDVRPScalabilityNetwork.router[10] currentTableSize 12
scalar EDVRPScalabilityNetwork.router[10] routingTableUpdates 1
scalar EDVRPScalabilityNetwork.router[10] currentTableSize 13
scalar EDVRPScalabilityNetwork.router[10] routingTableUpdates 1
scalar EDVRPScalabilityNetwork.router[10] currentTableSize 14
scalar EDVRPScalabilityNetwork.router[12] routingTableUpdates 1
scalar EDVRPScalabilityNetwork.router[12] currentTableSize 10
scalar EDVRPScalabilityNetwork.router[12] routingTableUpdates 1
scalar EDVRPScalabilityNetwork.router[12] currentTableSize 11
scalar EDVRPScalabilityNetwork.router[10] routingTableUpdates 1
scalar EDVRPScalabilityNetwork.router[10] currentTableSize 15
scalar EDVRPScalabilityNetwork.router[10] routingTableUpdates 1
scalar EDVRPScalabilityNetwork.router[10] currentTableSize 16
scalar EDVRPScalabilityNetwork.router[15] routingTableUpdates 1
scalar EDVRPScalabilityNetwork.router[15] currentTableSize 11
scalar EDVRPScalabilityNetwork.router[17] routingTableUpdates 1
scalar EDVRPScalabilityNetwork.router[17] currentTableSize 8
scalar EDVRPScalabilityNetwork.router[9] routingTableUpdates 1
scalar EDVRPScalabilityNetwork.router[9] currentTableSize 15
scalar EDVRPScalabilityNetwork.router[9] routingTableUpdates 1
scalar EDVRPScalabilityNetwork.router[9] currentTableSize 16
scalar EDVRPScalabilityNetwork.router[11] routingTableUpdates 1
scalar EDVRPScalabilityNetwork.router[11] currentTableSize 12
scalar EDVRPScalabilityNetwork.router[11] routingTableUpdates 1
scalar EDVRPScalabilityNetwork.router[11] currentTableSize 13
scalar EDVRPScalabilityNetwork.router[11] routingTableUpdates 1
scalar EDVRPScalabilityNetwork.router[11] currentTableSize 14
scalar EDVRPScalabilityNetwork.router[11] routingTableUpdates 1
scalar EDVRPScalabilityNetwork.router[11] currentTableSize 15
scalar EDVRPScalabilityNetwork.router[11] routingTableUpdates 1
scalar EDVRPScalabilityNetwork.router[11] currentTableSize 16
scalar EDVRPScalabilityNetwork.router[12] routingTableUpdates 1
scalar EDVRPScalabilityNetwork.router[12] currentTableSize 12
scalar EDVRPScalabilityNetwork.router[16] routingTableUpdates 1
scalar EDVRPScalabilityNetwork.router[16] currentTableSize 9
scalar EDVRPScalabilityNetwork.router[16] routingTableUpdates 1
scalar EDVRPScalabilityNetwork.router[16] currentTableSize 10
scalar EDVRPScalabilityNetwork.router[16] routingTableUpdates 1
scalar EDVRPScalabilityNetwork.router[16] currentTableSize 11
scalar EDVRPScalabilityNetwork.router[14] routingTableUpdates 1
scalar EDVRPScalabilityNetwork.router[14] currentTableSize 11
scalar EDVRPScalabilityNetwork.router[19] routingTableUpdates 1
scalar EDVRPScalabilityNetwork.router[19] currentTableSize 6
scalar EDVRPScalabilityNetwork.router[19] routingTableUpdates 1
scalar EDVRPScalabilityNetwork.router[19] currentTableSize 7
scalar EDVRPScalabilityNetwork.router[4] routingTableUpdates 1
scalar EDVRPScalabilityNetwork.router[4] currentTableSize 9
scalar EDVRPScalabilityNetwork.router[4] routingTableUpdates 1
scalar EDVRPScalabilityNetwork.router[4] currentTableSize 10
scalar EDVRPScalabilityNetwork.router[2] routingTableUpdates 1
scalar EDVRPScalabilityNetwork.router[2] currentTableSize 9
scalar EDVRPScalabilityNetwork.router[2] routingTableUpdates 1
scalar EDVRPScalabilityNetwork.router[2] currentTableSize 10
scalar EDVRPScalabilityNetwork.router[8] routingTableUpdates 1
scalar EDVRPScalabilityNetwork.router[8] currentTableSize 15
scalar EDVRPScalabilityNetwork.router[8] routingTableUpdates 1
scalar EDVRPScalabilityNetwork.router[8] currentTableSize 16
scalar EDVRPScalabilityNetwork.router[8] routingTableUpdates 1
scalar EDVRPScalabilityNetwork.router[8] currentTableSize 16
scalar EDVRPScalabilityNetwork.router[6] routingTableUpdates 1
scalar EDVRPScalabilityNetwork.router[6] currentTableSize 11
scalar EDVRPScalabilityNetwork.router[6] routingTableUpdates 1
scalar EDVRPScalabilityNetwork.router[6] currentTableSize 12
scalar EDVRPScalabilityNetwork.router[6] routingTableUpdates 1
scalar EDVRPScalabilityNetwork.router[6] currentTableSize 13
scalar EDVRPScalabilityNetwork.router[6] routingTableUpdates 1
scalar EDVRPScalabilityNetwork.router[6] currentTableSize 14
scalar EDVRPScalabilityNetwork.router[6] routingTableUpdates 1
scalar EDVRPScalabilityNetwork.router[6] currentTableSize 15
scalar EDVRPScalabilityNetwork.router[6] routingTableUpdates 1
scalar EDVRPScalabilityNetwork.router[6] currentTableSize 16
scalar EDVRPScalabilityNetwork.router[8] routingTableUpdates 1
scalar EDVRPScalabilityNetwork.router[8] currentTableSize 17
scalar EDVRPScalabilityNetwork.router[8] routingTableUpdates 1
scalar EDVRPScalabilityNetwork.router[8] currentTableSize 18
scalar EDVRPScalabilityNetwork.router[11] routingTableUpdates 1
scalar EDVRPScalabilityNetwork.router[11] currentTableSize 17
scalar EDVRPScalabilityNetwork.router[13] routingTableUpdates 1
scalar EDVRPScalabilityNetwork.router[13] currentTableSize 11
scalar EDVRPScalabilityNetwork.router[13] routingTableUpdates 1
scalar EDVRPScalabilityNetwork.router[13] currentTableSize 12
scalar EDVRPScalabilityNetwork.router[17] routingTableUpdates 1
scalar EDVRPScalabilityNetwork.router[17] currentTableSize 9
scalar EDVRPScalabilityNetwork.router[17] routingTableUpdates 1
scalar EDVRPScalabilityNetwork.router[17] currentTableSize 10
scalar EDVRPScalabilityNetwork.router[17] routingTableUpdates 1
scalar EDVRPScalabilityNetwork.router[17] currentTableSize 11
scalar EDVRPScalabilityNetwork.router[18] routingTableUpdates 1
scalar EDVRPScalabilityNetwork.router[18] currentTableSize 8
scalar EDVRPScalabilityNetwork.router[3] routingTableUpdates 1
scalar EDVRPScalabilityNetwork.router[3] currentTableSize 9
scalar EDVRPScalabilityNetwork.router[3] routingTableUpdates 1
scalar EDVRPScalabilityNetwork.router[3] currentTableSize 10
scalar EDVRPScalabilityNetwork.router[1] routingTableUpdates 1
scalar EDVRPScalabilityNetwork.router[1] currentTableSize 9
scalar EDVRPScalabilityNetwork.router[1] routingTableUpdates 1
scalar EDVRPScalabilityNetwork.router[1] currentTableSize 10
scalar EDVRPScalabilityNetwork.router[7] routingTableUpdates 1
scalar EDVRPScalabilityNetwork.router[7] currentTableSize 17
scalar EDVRPScalabilityNetwork.router[7] routingTableUpdates 1
scalar EDVRPScalabilityNetwork.router[7] currentTableSize 18
scalar EDVRPScalabilityNetwork.router[9] routingTableUpdates 1
scalar EDVRPScalabilityNetwork.router[9] currentTableSize 17
scalar EDVRPScalabilityNetwork.router[9] routingTableUpdates 1
scalar EDVRPScalabilityNetwork.router[9] currentTableSize 18
scalar EDVRPScalabilityNetwork.router[9] routingTableUpdates 1
scalar EDVRPScalabilityNetwork.router[9] currentTableSize 18
scalar EDVRPScalabilityNetwork.router[14] routingTableUpdates 1
scalar EDVRPScalabilityNetwork.router[14] currentTableSize 12
scalar EDVRPScalabilityNetwork.router[14] routingTableUpdates 1
scalar EDVRPScalabilityNetwork.router[14] currentTableSize 13
scalar EDVRPScalabilityNetwork.router[5] routingTableUpdates 1
scalar EDVRPScalabilityNetwork.router[5] currentTableSize 11
scalar EDVRPScalabilityNetwork.router[5] routingTableUpdates 1
scalar EDVRPScalabilityNetwork.router[5] currentTableSize 12
scalar EDVRPScalabilityNetwork.router[5] routingTableUpdates 1
scalar EDVRPScalabilityNetwork.router[5] currentTableSize 13
scalar EDVRPScalabilityNetwork.router[5] routingTableUpdates 1
scalar EDVRPScalabilityNetwork.router[5] currentTableSize 14
scalar EDVRPScalabilityNetwork.router[5] routingTableUpdates 1
scalar EDVRPScalabilityNetwork.router[5] currentTableSize 15
scalar EDVRPScalabilityNetwork.router[5] routingTableUpdates 1
scalar EDVRPScalabilityNetwork.router[5] currentTableSize 16
scalar EDVRPScalabilityNetwork.router[19] routingTableUpdates 1
scalar EDVRPScalabilityNetwork.router[19] currentTableSize 8
scalar EDVRPScalabilityNetwork.router[12] routingTableUpdates 1
scalar EDVRPScalabilityNetwork.router[12] currentTableSize 13
scalar EDVRPScalabilityNetwork.router[12] routingTableUpdates 1
scalar EDVRPScalabilityNetwork.router[12] currentTableSize 14
scalar EDVRPScalabilityNetwork.router[12] routingTableUpdates 1
scalar EDVRPScalabilityNetwork.router[12] currentTableSize 15
scalar EDVRPScalabilityNetwork.router[12] routingTableUpdates 1
scalar EDVRPScalabilityNetwork.router[12] currentTableSize 16
scalar EDVRPScalabilityNetwork.router[12] routingTableUpdates 1
scalar EDVRPScalabilityNetwork.router[12] currentTableSize 17
scalar EDVRPScalabilityNetwork.router[10] routingTableUpdates 1
scalar EDVRPScalabilityNetwork.router[10] currentTableSize 17
scalar EDVRPScalabilityNetwork.router[15] routingTableUpdates 1
scalar EDVRPScalabilityNetwork.router[15] currentTableSize 12
scalar EDVRPScalabilityNetwork.router[15] routingTableUpdates 1
scalar EDVRPScalabilityNetwork.router[15] currentTableSize 13
scalar EDVRPScalabilityNetwork.router[13] routingTableUpdates 1
scalar EDVRPScalabilityNetwork.router[13] currentTableSize 13
scalar EDVRPScalabilityNetwork.router[0] routingTableUpdates 1
scalar EDVRPScalabilityNetwork.router[0] currentTableSize 9
scalar EDVRPScalabilityNetwork.router[0] routingTableUpdates 1
scalar EDVRPScalabilityNetwork.router[0] currentTableSize 10
scalar EDVRPScalabilityNetwork.router[1] routingTableUpdates 1
scalar EDVRPScalabilityNetwork.router[1] currentTableSize 10
scalar EDVRPScalabilityNetwork.router[1] routingTableUpdates 1
scalar EDVRPScalabilityNetwork.router[1] currentTableSize 10
scalar EDVRPScalabilityNetwork.router[3] routingTableUpdates 1
scalar EDVRPScalabilityNetwork.router[3] currentTableSize 10
scalar EDVRPScalabilityNetwork.router[3] routingTableUpdates 1
scalar EDVRPScalabilityNetwork.router[3] currentTableSize 10
scalar EDVRPScalabilityNetwork.router[4] routingTableUpdates 1
scalar EDVRPScalabilityNetwork.router[4] currentTableSize 11
scalar EDVRPScalabilityNetwork.router[4] routingTableUpdates 1
scalar EDVRPScalabilityNetwork.router[4] currentTableSize 12
scalar EDVRPScalabilityNetwork.router[4] routingTableUpdates 1
scalar EDVRPScalabilityNetwork.router[4] currentTableSize 13
scalar EDVRPScalabilityNetwork.router[4] routingTableUpdates 1
scalar EDVRPScalabilityNetwork.router[4] currentTableSize 14
scalar EDVRPScalabilityNetwork.router[4] routingTableUpdates 1
scalar EDVRPScalabilityNetwork.router[4] currentTableSize 15
scalar EDVRPScalabilityNetwork.router[4] routingTableUpdates 1
scalar EDVRPScalabilityNetwork.router[4] currentTableSize 16
scalar EDVRPScalabilityNetwork.router[2] routingTableUpdates 1
scalar EDVRPScalabilityNetwork.router[2] currentTableSize 11
scalar EDVRPScalabilityNetwork.router[2] routingTableUpdates 1
scalar EDVRPScalabilityNetwork.router[2] currentTableSize 12
scalar EDVRPScalabilityNetwork.router[2] routingTableUpdates 1
scalar EDVRPScalabilityNetwork.router[2] currentTableSize 13
scalar EDVRPScalabilityNetwork.router[2] routingTableUpdates 1
scalar EDVRPScalabilityNetwork.router[2] currentTableSize 14
scalar EDVRPScalabilityNetwork.router[2] routingTableUpdates 1
scalar EDVRPScalabilityNetwork.router[2] currentTableSize 15
scalar EDVRPScalabilityNetwork.router[2] routingTableUpdates 1
scalar EDVRPScalabilityNetwork.router[2] currentTableSize 16
scalar EDVRPScalabilityNetwork.router[13] routingTableUpdates 1
scalar EDVRPScalabilityNetwork.router[13] currentTableSize 14
scalar EDVRPScalabilityNetwork.router[13] routingTableUpdates 1
scalar EDVRPScalabilityNetwork.router[13] currentTableSize 15
scalar EDVRPScalabilityNetwork.router[13] routingTableUpdates 1
scalar EDVRPScalabilityNetwork.router[13] currentTableSize 16
scalar EDVRPScalabilityNetwork.router[13] routingTableUpdates 1
scalar EDVRPScalabilityNetwork.router[13] currentTableSize 17
scalar EDVRPScalabilityNetwork.router[13] routingTableUpdates 1
scalar EDVRPScalabilityNetwork.router[13] currentTableSize 18
scalar EDVRPScalabilityNetwork.router[18] routingTableUpdates 1
scalar EDVRPScalabilityNetwork.router[18] currentTableSize 9
scalar EDVRPScalabilityNetwork.router[18] routingTableUpdates 1
scalar EDVRPScalabilityNetwork.router[18] currentTableSize 10
scalar EDVRPScalabilityNetwork.router[18] routingTableUpdates 1
scalar EDVRPScalabilityNetwork.router[18] currentTableSize 11
scalar EDVRPScalabilityNetwork.router[0] routingTableUpdates 1
scalar EDVRPScalabilityNetwork.router[0] currentTableSize 10
scalar EDVRPScalabilityNetwork.router[0] routingTableUpdates 1
scalar EDVRPScalabilityNetwork.router[0] currentTableSize 10
scalar EDVRPScalabilityNetwork.router[9] routingTableUpdates 1
scalar EDVRPScalabilityNetwork.router[9] currentTableSize 19
scalar EDVRPScalabilityNetwork.router[14] routingTableUpdates 1
scalar EDVRPScalabilityNetwork.router[14] currentTableSize 14
scalar EDVRPScalabilityNetwork.router[14] routingTableUpdates 1
scalar EDVRPScalabilityNetwork.router[14] currentTableSize 15
scalar EDVRPScalabilityNetwork.router[14] routingTableUpdates 1
scalar EDVRPScalabilityNetwork.router[14] currentTableSize 16
scalar EDVRPScalabilityNetwork.router[14] routingTableUpdates 1
scalar EDVRPScalabilityNetwork.router[14] currentTableSize 17
scalar EDVRPScalabilityNetwork.router[14] routingTableUpdates 1
scalar EDVRPScalabilityNetwork.router[14] currentTableSize 18
scalar EDVRPScalabilityNetwork.router[12] routingTableUpdates 1
scalar EDVRPScalabilityNetwork.router[12] currentTableSize 18
scalar EDVRPScalabilityNetwork.router[6] routingTableUpdates 1
scalar EDVRPScalabilityNetwork.router[6] currentTableSize 17
scalar EDVRPScalabilityNetwork.router[6] routingTableUpdates 1
scalar EDVRPScalabilityNetwork.router[6] currentTableSize 18
scalar EDVRPScalabilityNetwork.router[1] routingTableUpdates 1
scalar EDVRPScalabilityNetwork.router[1] currentTableSize 11
scalar EDVRPScalabilityNetwork.router[1] routingTableUpdates 1
scalar EDVRPScalabilityNetwork.router[1] currentTableSize 12
scalar EDVRPScalabilityNetwork.router[1] routingTableUpdates 1
scalar EDVRPScalabilityNetwork.router[1] currentTableSize 13
scalar EDVRPScalabilityNetwork.router[1] routingTableUpdates 1
scalar EDVRPScalabilityNetwork.router[1] currentTableSize 14
scalar EDVRPScalabilityNetwork.router[1] routingTableUpdates 1
scalar EDVRPScalabilityNetwork.router[1] currentTableSize 15
scalar EDVRPScalabilityNetwork.router[1] routingTableUpdates 1
scalar EDVRPScalabilityNetwork.router[1] currentTableSize 16
scalar EDVRPScalabilityNetwork.router[3] routingTableUpdates 1
scalar EDVRPScalabilityNetwork.router[3] currentTableSize 11
scalar EDVRPScalabilityNetwork.router[3] routingTableUpdates 1
scalar EDVRPScalabilityNetwork.router[3] currentTableSize 12
scalar EDVRPScalabilityNetwork.router[3] routingTableUpdates 1
scalar EDVRPScalabilityNetwork.router[3] currentTableSize 13
scalar EDVRPScalabilityNetwork.router[3] routingTableUpdates 1
scalar EDVRPScalabilityNetwork.router[3] currentTableSize 14
scalar EDVRPScalabilityNetwork.router[3] routingTableUpdates 1
scalar EDVRPScalabilityNetwork.router[3] currentTableSize 15
scalar EDVRPScalabilityNetwork.router[3] routingTableUpdates 1
scalar EDVRPScalabilityNetwork.router[3] currentTableSize 16
scalar EDVRPScalabilityNetwork.router[19] routingTableUpdates 1
scalar EDVRPScalabilityNetwork.router[19] currentTableSize 9
scalar EDVRPScalabilityNetwork.router[19] routingTableUpdates 1
scalar EDVRPScalabilityNetwork.router[19] currentTableSize 10
scalar EDVRPScalabilityNetwork.router[19] routingTableUpdates 1
scalar EDVRPScalabilityNetwork.router[19] currentTableSize 11
scalar EDVRPScalabilityNetwork.router[10] routingTableUpdates 1
scalar EDVRPScalabilityNetwork.router[10] currentTableSize 18
scalar EDVRPScalabilityNetwork.router[10] routingTableUpdates 1
scalar EDVRPScalabilityNetwork.router[10] currentTableSize 19
scalar EDVRPScalabilityNetwork.router[10] routingTableUpdates 1
scalar EDVRPScalabilityNetwork.router[10] currentTableSize 19
scalar EDVRPScalabilityNetwork.router[8] routingTableUpdates 1
scalar EDVRPScalabilityNetwork.router[8] currentTableSize 19
scalar EDVRPScalabilityNetwork.router[11] routingTableUpdates 1
scalar EDVRPScalabilityNetwork.router[11] currentTableSize 18
scalar EDVRPScalabilityNetwork.router[16] routingTableUpdates 1
scalar EDVRPScalabilityNetwork.router[16] currentTableSize 12
scalar EDVRPScalabilityNetwork.router[16] routingTableUpdates 1
scalar EDVRPScalabilityNetwork.router[16] currentTableSize 13
scalar EDVRPScalabilityNetwork.router[7] routingTableUpdates 1
scalar EDVRPScalabilityNetwork.router[7] currentTableSize 19
scalar EDVRPScalabilityNetwork.router[0] routingTableUpdates 1
scalar EDVRPScalabilityNetwork.router[0] currentTableSize 11
scalar EDVRPScalabilityNetwork.router[0] routingTableUpdates 1
scalar EDVRPScalabilityNetwork.router[0] currentTableSize 12
scalar EDVRPScalabilityNetwork.router[0] routingTableUpdates 1
scalar EDVRPScalabilityNetwork.router[0] currentTableSize 13
scalar EDVRPScalabilityNetwork.router[0] routingTableUpdates 1
scalar EDVRPScalabilityNetwork.router[0] currentTableSize 14
scalar EDVRPScalabilityNetwork.router[0] routingTableUpdates 1
scalar EDVRPScalabilityNetwork.router[0] currentTableSize 15
scalar EDVRPScalabilityNetwork.router[0] routingTableUpdates 1
scalar EDVRPScalabilityNetwork.router[0] currentTableSize 16
scalar EDVRPScalabilityNetwork.router[11] routingTableUpdates 1
scalar EDVRPScalabilityNetwork.router[11] currentTableSize 19
scalar EDVRPScalabilityNetwork.router[11] routingTableUpdates 1
scalar EDVRPScalabilityNetwork.router[11] currentTableSize 20
scalar EDVRPScalabilityNetwork.router[11] routingTableUpdates 1
scalar EDVRPScalabilityNetwork.router[11] currentTableSize 20
scalar EDVRPScalabilityNetwork.router[5] routingTableUpdates 1
scalar EDVRPScalabilityNetwork.router[5] currentTableSize 17
scalar EDVRPScalabilityNetwork.router[5] routingTableUpdates 1
scalar EDVRPScalabilityNetwork.router[5] currentTableSize 18
scalar EDVRPScalabilityNetwork.router[15] routingTableUpdates 1
scalar EDVRPScalabilityNetwork.router[15] currentTableSize 14
scalar EDVRPScalabilityNetwork.router[15] routingTableUpdates 1
scalar EDVRPScalabilityNetwork.router[15] currentTableSize 15
scalar EDVRPScalabilityNetwork.router[15] routingTableUpdates 1
scalar EDVRPScalabilityNetwork.router[15] currentTableSize 16
scalar EDVRPScalabilityNetwork.router[15] routingTableUpdates 1
scalar EDVRPScalabilityNetwork.router[15] currentTableSize 17
scalar EDVRPScalabilityNetwork.router[15] routingTableUpdates 1
scalar EDVRPScalabilityNetwork.router[15] currentTableSize 18
scalar EDVRPScalabilityNetwork.router[11] helloMessagesSent 2
scalar EDVRPScalabilityNetwork.router[15] helloMessagesSent 2
scalar EDVRPScalabilityNetwork.router[4] helloMessagesSent 3
scalar EDVRPScalabilityNetwork.router[3] helloMessagesSent 3
scalar EDVRPScalabilityNetwork.router[12] routingTableUpdates 1
scalar EDVRPScalabilityNetwork.router[12] currentTableSize 19
scalar EDVRPScalabilityNetwork.router[12] routingTableUpdates 1
scalar EDVRPScalabilityNetwork.router[12] currentTableSize 20
scalar EDVRPScalabilityNetwork.router[12] routingTableUpdates 1
scalar EDVRPScalabilityNetwork.router[12] currentTableSize 20
scalar EDVRPScalabilityNetwork.router[10] routingTableUpdates 1
scalar EDVRPScalabilityNetwork.router[10] currentTableSize 20
scalar EDVRPScalabilityNetwork.router[10] helloMessagesSent 2
scalar EDVRPScalabilityNetwork.router[6] helloMessagesSent 2
scalar EDVRPScalabilityNetwork.router[4] routingTableUpdates 1
scalar EDVRPScalabilityNetwork.router[4] currentTableSize 17
scalar EDVRPScalabilityNetwork.router[4] routingTableUpdates 1
scalar EDVRPScalabilityNetwork.router[4] currentTableSize 18
scalar EDVRPScalabilityNetwork.router[2] routingTableUpdates 1
scalar EDVRPScalabilityNetwork.router[2] currentTableSize 17
scalar EDVRPScalabilityNetwork.router[2] routingTableUpdates 1
scalar EDVRPScalabilityNetwork.router[2] currentTableSize 18
scalar EDVRPScalabilityNetwork.router[13] routingTableUpdates 1
scalar EDVRPScalabilityNetwork.router[13] currentTableSize 19
scalar EDVRPScalabilityNetwork.router[13] routingTableUpdates 1
scalar EDVRPScalabilityNetwork.router[13] currentTableSize 20
scalar EDVRPScalabilityNetwork.router[13] routingTableUpdates 1
scalar EDVRPScalabilityNetwork.router[13] currentTableSize 20
scalar EDVRPScalabilityNetwork.router[5] helloMessagesSent 3
scalar EDVRPScalabilityNetwork.router[16] routingTableUpdates 1
scalar EDVRPScalabilityNetwork.router[16] currentTableSize 14
scalar EDVRPScalabilityNetwork.router[16] routingTableUpdates 1
scalar EDVRPScalabilityNetwork.router[16] currentTableSize 15
scalar EDVRPScalabilityNetwork.router[16] routingTableUpdates 1
scalar EDVRPScalabilityNetwork.router[16] currentTableSize 16
scalar EDVRPScalabilityNetwork.router[16] routingTableUpdates 1
scalar EDVRPScalabilityNetwork.router[16] currentTableSize 17
scalar EDVRPScalabilityNetwork.router[16] routingTableUpdates 1
scalar EDVRPScalabilityNetwork.router[16] currentTableSize 18
scalar EDVRPScalabilityNetwork.router[9] helloMessagesSent 2
scalar EDVRPScalabilityNetwork.router[0] helloMessagesSent 2
scalar EDVRPScalabilityNetwork.router[17] routingTableUpdates 1
scalar EDVRPScalabilityNetwork.router[17] currentTableSize 12
scalar EDVRPScalabilityNetwork.router[17] routingTableUpdates 1
scalar EDVRPScalabilityNetwork.router[17] currentTableSize 13
scalar EDVRPScalabilityNetwork.router[17] routingTableUpdates 1
scalar EDVRPScalabilityNetwork.router[17] currentTableSize 14
scalar EDVRPScalabilityNetwork.router[17] routingTableUpdates 1
scalar EDVRPScalabilityNetwork.router[17] currentTableSize 15
scalar EDVRPScalabilityNetwork.router[17] routingTableUpdates 1
scalar EDVRPScalabilityNetwork.router[17] currentTableSize 16
scalar EDVRPScalabilityNetwork.router[17] routingTableUpdates 1
scalar EDVRPScalabilityNetwork.router[17] currentTableSize 17
scalar EDVRPScalabilityNetwork.router[17] routingTableUpdates 1
scalar EDVRPScalabilityNetwork.router[17] currentTableSize 18
scalar EDVRPScalabilityNetwork.router[6] routingTableUpdates 1
scalar EDVRPScalabilityNetwork.router[6] currentTableSize 19
scalar EDVRPScalabilityNetwork.router[3] routingTableUpdates 1
scalar EDVRPScalabilityNetwork.router[3] currentTableSize 17
scalar EDVRPScalabilityNetwork.router[3] routingTableUpdates 1
scalar EDVRPScalabilityNetwork.router[3] currentTableSize 18
scalar EDVRPScalabilityNetwork.router[1] routingTableUpdates 1
scalar EDVRPScalabilityNetwork.router[1] currentTableSize 17
scalar EDVRPScalabilityNetwork.router[1] routingTableUpdates 1
scalar EDVRPScalabilityNetwork.router[1] currentTableSize 18
scalar EDVRPScalabilityNetwork.router[1] routingTableUpdates 1
scalar EDVRPScalabilityNetwork.router[1] currentTableSize 18
scalar EDVRPScalabilityNetwork.router[1] routingTableUpdates 1
scalar EDVRPScalabilityNetwork.router[1] currentTableSize 18
scalar EDVRPScalabilityNetwork.router[3] routingTableUpdates 1
scalar EDVRPScalabilityNetwork.router[3] currentTableSize 18
scalar EDVRPScalabilityNetwork.router[3] routingTableUpdates 1
scalar EDVRPScalabilityNetwork.router[3] currentTableSize 18
scalar EDVRPScalabilityNetwork.router[14] routingTableUpdates 1
scalar EDVRPScalabilityNetwork.router[14] currentTableSize 19
scalar EDVRPScalabilityNetwork.router[14] routingTableUpdates 1
scalar EDVRPScalabilityNetwork.router[14] currentTableSize 20
scalar EDVRPScalabilityNetwork.router[14] routingTableUpdates 1
scalar EDVRPScalabilityNetwork.router[14] currentTableSize 20
scalar EDVRPScalabilityNetwork.router[2] helloMessagesSent 3
scalar EDVRPScalabilityNetwork.router[9] routingTableUpdates 1
scalar EDVRPScalabilityNetwork.router[9] currentTableSize 20
scalar EDVRPScalabilityNetwork.router[18] helloMessagesSent 2
scalar EDVRPScalabilityNetwork.router[13] helloMessagesSent 2
scalar EDVRPScalabilityNetwork.router[17] helloMessagesSent 2
scalar EDVRPScalabilityNetwork.router[1] helloMessagesSent 3
scalar EDVRPScalabilityNetwork.router[0] routingTableUpdates 1
scalar EDVRPScalabilityNetwork.router[0] currentTableSize 17
scalar EDVRPScalabilityNetwork.router[0] routingTableUpdates 1
scalar EDVRPScalabilityNetwork.router[0] currentTableSize 18
scalar EDVRPScalabilityNetwork.router[14] helloMessagesSent 2
scalar EDVRPScalabilityNetwork.router[12] helloMessagesSent 2
scalar EDVRPScalabilityNetwork.router[16] helloMessagesSent 2
scalar EDVRPScalabilityNetwork.router[18] routingTableUpdates 1
scalar EDVRPScalabilityNetwork.router[18] currentTableSize 12
scalar EDVRPScalabilityNetwork.router[18] routingTableUpdates 1
scalar EDVRPScalabilityNetwork.router[18] currentTableSize 13
scalar EDVRPScalabilityNetwork.router[18] routingTableUpdates 1
scalar EDVRPScalabilityNetwork.router[18] currentTableSize 14
scalar EDVRPScalabilityNetwork.router[18] routingTableUpdates 1
scalar EDVRPScalabilityNetwork.router[18] currentTableSize 15
scalar EDVRPScalabilityNetwork.router[18] routingTableUpdates 1
scalar EDVRPScalabilityNetwork.router[18] currentTableSize 16
scalar EDVRPScalabilityNetwork.router[18] routingTableUpdates 1
scalar EDVRPScalabilityNetwork.router[18] currentTableSize 17
scalar EDVRPScalabilityNetwork.router[18] routingTableUpdates 1
scalar EDVRPScalabilityNetwork.router[18] currentTableSize 18
scalar EDVRPScalabilityNetwork.router[7] helloMessagesSent 2
scalar EDVRPScalabilityNetwork.router[5] routingTableUpdates 1
scalar EDVRPScalabilityNetwork.router[5] currentTableSize 19
scalar EDVRPScalabilityNetwork.router[15] routingTableUpdates 1
scalar EDVRPScalabilityNetwork.router[15] currentTableSize 19
scalar EDVRPScalabilityNetwork.router[15] routingTableUpdates 1
scalar EDVRPScalabilityNetwork.router[15] currentTableSize 20
scalar EDVRPScalabilityNetwork.router[15] routingTableUpdates 1
scalar EDVRPScalabilityNetwork.router[15] currentTableSize 20
scalar EDVRPScalabilityNetwork.router[8] routingTableUpdates 1
scalar EDVRPScalabilityNetwork.router[8] currentTableSize 20
scalar EDVRPScalabilityNetwork.router[19] helloMessagesSent 1
scalar EDVRPScalabilityNetwork.router[19] routingTableUpdates 1
scalar EDVRPScalabilityNetwork.router[19] currentTableSize 12
scalar EDVRPScalabilityNetwork.router[19] routingTableUpdates 1
scalar EDVRPScalabilityNetwork.router[19] currentTableSize 13
scalar EDVRPScalabilityNetwork.router[19] routingTableUpdates 1
scalar EDVRPScalabilityNetwork.router[19] currentTableSize 14
scalar EDVRPScalabilityNetwork.router[19] routingTableUpdates 1
scalar EDVRPScalabilityNetwork.router[19] currentTableSize 15
scalar EDVRPScalabilityNetwork.router[19] routingTableUpdates 1
scalar EDVRPScalabilityNetwork.router[19] currentTableSize 16
scalar EDVRPScalabilityNetwork.router[19] routingTableUpdates 1
scalar EDVRPScalabilityNetwork.router[19] currentTableSize 17
scalar EDVRPScalabilityNetwork.router[19] routingTableUpdates 1
scalar EDVRPScalabilityNetwork.router[19] currentTableSize 18
scalar EDVRPScalabilityNetwork.router[8] helloMessagesSent 2
scalar EDVRPScalabilityNetwork.router[7] routingTableUpdates 1
scalar EDVRPScalabilityNetwork.router[7] currentTableSize 20
scalar EDVRPScalabilityNetwork.router[16] routingTableUpdates 1
scalar EDVRPScalabilityNetwork.router[16] currentTableSize 19
scalar EDVRPScalabilityNetwork.router[16] routingTableUpdates 1
scalar EDVRPScalabilityNetwork.router[16] currentTableSize 20
scalar EDVRPScalabilityNetwork.router[16] routingTableUpdates 1
scalar EDVRPScalabilityNetwork.router[16] currentTableSize 20
scalar EDVRPScalabilityNetwork.router[4] routingTableUpdates 1
scalar EDVRPScalabilityNetwork.router[4] currentTableSize 19
scalar EDVRPScalabilityNetwork.router[2] routingTableUpdates 1
scalar EDVRPScalabilityNetwork.router[2] currentTableSize 19
scalar EDVRPScalabilityNetwork.router[6] routingTableUpdates 1
scalar EDVRPScalabilityNetwork.router[6] currentTableSize 20
scalar EDVRPScalabilityNetwork.router[17] routingTableUpdates 1
scalar EDVRPScalabilityNetwork.router[17] currentTableSize 19
scalar EDVRPScalabilityNetwork.router[17] routingTableUpdates 1
scalar EDVRPScalabilityNetwork.router[17] currentTableSize 20
scalar EDVRPScalabilityNetwork.router[17] routingTableUpdates 1
scalar EDVRPScalabilityNetwork.router[17] currentTableSize 20
scalar EDVRPScalabilityNetwork.router[1] routingTableUpdates 1
scalar EDVRPScalabilityNetwork.router[1] currentTableSize 19
scalar EDVRPScalabilityNetwork.router[3] routingTableUpdates 1
scalar EDVRPScalabilityNetwork.router[3] currentTableSize 19
scalar EDVRPScalabilityNetwork.router[5] routingTableUpdates 1
scalar EDVRPScalabilityNetwork.router[5] currentTableSize 20
scalar EDVRPScalabilityNetwork.router[18] routingTableUpdates 1
scalar EDVRPScalabilityNetwork.router[18] currentTableSize 19
scalar EDVRPScalabilityNetwork.router[18] routingTableUpdates 1
scalar EDVRPScalabilityNetwork.router[18] currentTableSize 20
scalar EDVRPScalabilityNetwork.router[18] routingTableUpdates 1
scalar EDVRPScalabilityNetwork.router[18] currentTableSize 20
scalar EDVRPScalabilityNetwork.router[19] routingTableUpdates 1
scalar EDVRPScalabilityNetwork.router[19] currentTableSize 19
scalar EDVRPScalabilityNetwork.router[19] routingTableUpdates 1
scalar EDVRPScalabilityNetwork.router[19] currentTableSize 20
scalar EDVRPScalabilityNetwork.router[19] routingTableUpdates 1
scalar EDVRPScalabilityNetwork.router[19] currentTableSize 20
scalar EDVRPScalabilityNetwork.router[0] routingTableUpdates 1
scalar EDVRPScalabilityNetwork.router[0] currentTableSize 19
scalar EDVRPScalabilityNetwork.router[4] routingTableUpdates 1
scalar EDVRPScalabilityNetwork.router[4] currentTableSize 20
scalar EDVRPScalabilityNetwork.router[2] routingTableUpdates 1
scalar EDVRPScalabilityNetwork.router[2] currentTableSize 20
scalar EDVRPScalabilityNetwork.router[0] routingTableUpdates 1
scalar EDVRPScalabilityNetwork.router[0] currentTableSize 19
scalar EDVRPScalabilityNetwork.router[1] routingTableUpdates 1
scalar EDVRPScalabilityNetwork.router[1] currentTableSize 20
scalar EDVRPScalabilityNetwork.router[3] routingTableUpdates 1
scalar EDVRPScalabilityNetwork.router[3] currentTableSize 20
scalar EDVRPScalabilityNetwork.router[0] routingTableUpdates 1
scalar EDVRPScalabilityNetwork.router[0] currentTableSize 20
scalar EDVRPScalabilityNetwork.router[0] routingTableUpdates 1
scalar EDVRPScalabilityNetwork.router[0] currentTableSize 20
scalar EDVRPScalabilityNetwork.router[11] helloMessagesSent 2
scalar EDVRPScalabilityNetwork.router[15] helloMessagesSent 2
scalar EDVRPScalabilityNetwork.router[4] helloMessagesSent 3
scalar EDVRPScalabilityNetwork.router[3] helloMessagesSent 3
scalar EDVRPScalabilityNetwork.router[10] helloMessagesSent 2
scalar EDVRPScalabilityNetwork.router[6] helloMessagesSent 2
scalar EDVRPScalabilityNetwork.router[5] helloMessagesSent 3
scalar EDVRPScalabilityNetwork.router[9] helloMessagesSent 2
scalar EDVRPScalabilityNetwork.router[0] helloMessagesSent 2
scalar EDVRPScalabilityNetwork.router[2] helloMessagesSent 3
scalar EDVRPScalabilityNetwork.router[18] helloMessagesSent 2
scalar EDVRPScalabilityNetwork.router[13] helloMessagesSent 2
scalar EDVRPScalabilityNetwork.router[17] helloMessagesSent 2
scalar EDVRPScalabilityNetwork.router[1] helloMessagesSent 3
scalar EDVRPScalabilityNetwork.router[14] helloMessagesSent 2
scalar EDVRPScalabilityNetwork.router[12] helloMessagesSent 2
scalar EDVRPScalabilityNetwork.router[16] helloMessagesSent 2
scalar EDVRPScalabilityNetwork.router[7] helloMessagesSent 2
scalar EDVRPScalabilityNetwork.router[19] helloMessagesSent 1
scalar EDVRPScalabilityNetwork.router[8] helloMessagesSent 2
scalar EDVRPScalabilityNetwork.router[11] helloMessagesSent 2
scalar EDVRPScalabilityNetwork.router[15] helloMessagesSent 2
scalar EDVRPScalabilityNetwork.router[4] helloMessagesSent 3
scalar EDVRPScalabilityNetwork.router[3] helloMessagesSent 3
scalar EDVRPScalabilityNetwork.router[10] helloMessagesSent 2
scalar EDVRPScalabilityNetwork.router[6] helloMessagesSent 2
scalar EDVRPScalabilityNetwork.router[5] helloMessagesSent 3
scalar EDVRPScalabilityNetwork.router[9] helloMessagesSent 2
scalar EDVRPScalabilityNetwork.router[0] helloMessagesSent 2
scalar EDVRPScalabilityNetwork.router[2] helloMessagesSent 3
scalar EDVRPScalabilityNetwork.router[18] helloMessagesSent 2
scalar EDVRPScalabilityNetwork.router[13] helloMessagesSent 2
scalar EDVRPScalabilityNetwork.router[17] helloMessagesSent 2
scalar EDVRPScalabilityNetwork.router[1] helloMessagesSent 3
scalar EDVRPScalabilityNetwork.router[14] helloMessagesSent 2
scalar EDVRPScalabilityNetwork.router[12] helloMessagesSent 2
scalar EDVRPScalabilityNetwork.router[16] helloMessagesSent 2
scalar EDVRPScalabilityNetwork.router[7] helloMessagesSent 2
scalar EDVRPScalabilityNetwork.router[19] helloMessagesSent 1
scalar EDVRPScalabilityNetwork.router[8] helloMessagesSent 2
scalar EDVRPScalabilityNetwork.router[11] helloMessagesSent 2
scalar EDVRPScalabilityNetwork.router[15] helloMessagesSent 2
scalar EDVRPScalabilityNetwork.router[4] helloMessagesSent 3
scalar EDVRPScalabilityNetwork.router[3] helloMessagesSent 3
scalar EDVRPScalabilityNetwork.router[10] helloMessagesSent 2
scalar EDVRPScalabilityNetwork.router[6] helloMessagesSent 2
scalar EDVRPScalabilityNetwork.router[5] helloMessagesSent 3
scalar EDVRPScalabilityNetwork.router[9] helloMessagesSent 2
scalar EDVRPScalabilityNetwork.router[0] helloMessagesSent 2
scalar EDVRPScalabilityNetwork.router[2] helloMessagesSent 3
scalar EDVRPScalabilityNetwork.router[18] helloMessagesSent 2
scalar EDVRPScalabilityNetwork.router[13] helloMessagesSent 2
scalar EDVRPScalabilityNetwork.router[17] helloMessagesSent 2
scalar EDVRPScalabilityNetwork.router[1] helloMessagesSent 3
scalar EDVRPScalabilityNetwork.router[14] helloMessagesSent 2
scalar EDVRPScalabilityNetwork.router[12] helloMessagesSent 2
scalar EDVRPScalabilityNetwork.router[16] helloMessagesSent 2
scalar EDVRPScalabilityNetwork.router[7] helloMessagesSent 2
scalar EDVRPScalabilityNetwork.router[19] helloMessagesSent 1
scalar EDVRPScalabilityNetwork.router[8] helloMessagesSent 2
scalar EDVRPScalabilityNetwork.router[11] helloMessagesSent 2
scalar EDVRPScalabilityNetwork.router[15] helloMessagesSent 2
scalar EDVRPScalabilityNetwork.router[4] helloMessagesSent 3
scalar EDVRPScalabilityNetwork.router[3] helloMessagesSent 3
scalar EDVRPScalabilityNetwork.router[10] helloMessagesSent 2
scalar EDVRPScalabilityNetwork.router[6] helloMessagesSent 2
scalar EDVRPScalabilityNetwork.router[5] helloMessagesSent 3
scalar EDVRPScalabilityNetwork.router[9] helloMessagesSent 2
scalar EDVRPScalabilityNetwork.router[0] helloMessagesSent 2
scalar EDVRPScalabilityNetwork.router[2] helloMessagesSent 3
scalar EDVRPScalabilityNetwork.router[18] helloMessagesSent 2
scalar EDVRPScalabilityNetwork.router[13] helloMessagesSent 2
scalar EDVRPScalabilityNetwork.router[17] helloMessagesSent 2
scalar EDVRPScalabilityNetwork.router[1] helloMessagesSent 3
scalar EDVRPScalabilityNetwork.router[14] helloMessagesSent 2
scalar EDVRPScalabilityNetwork.router[12] helloMessagesSent 2
scalar EDVRPScalabilityNetwork.router[16] helloMessagesSent 2
scalar EDVRPScalabilityNetwork.router[7] helloMessagesSent 2
scalar EDVRPScalabilityNetwork.router[19] helloMessagesSent 1
scalar EDVRPScalabilityNetwork.router[8] helloMessagesSent 2
scalar EDVRPScalabilityNetwork.router[11] helloMessagesSent 2
scalar EDVRPScalabilityNetwork.router[15] helloMessagesSent 2
scalar EDVRPScalabilityNetwork.router[4] helloMessagesSent 3
scalar EDVRPScalabilityNetwork.router[3] helloMessagesSent 3
scalar EDVRPScalabilityNetwork.router[10] helloMessagesSent 2
scalar EDVRPScalabilityNetwork.router[6] helloMessagesSent 2
scalar EDVRPScalabilityNetwork.router[5] helloMessagesSent 3
scalar EDVRPScalabilityNetwork.router[9] helloMessagesSent 2
scalar EDVRPScalabilityNetwork.router[0] helloMessagesSent 2
scalar EDVRPScalabilityNetwork.router[2] helloMessagesSent 3
scalar EDVRPScalabilityNetwork.router[18] helloMessagesSent 2
scalar EDVRPScalabilityNetwork.router[13] helloMessagesSent 2
scalar EDVRPScalabilityNetwork.router[17] helloMessagesSent 2
scalar EDVRPScalabilityNetwork.router[1] helloMessagesSent 3
scalar EDVRPScalabilityNetwork.router[14] helloMessagesSent 2
scalar EDVRPScalabilityNetwork.router[12] helloMessagesSent 2
scalar EDVRPScalabilityNetwork.router[16] helloMessagesSent 2
scalar EDVRPScalabilityNetwork.router[7] helloMessagesSent 2
scalar EDVRPScalabilityNetwork.router[19] helloMessagesSent 1
scalar EDVRPScalabilityNetwork.router[8] helloMessagesSent 2
scalar EDVRPScalabilityNetwork.router[11] helloMessagesSent 2
scalar EDVRPScalabilityNetwork.router[15] helloMessagesSent 2
scalar EDVRPScalabilityNetwork.router[4] helloMessagesSent 3
scalar EDVRPScalabilityNetwork.router[3] helloMessagesSent 3
scalar EDVRPScalabilityNetwork.router[10] helloMessagesSent 2
scalar EDVRPScalabilityNetwork.router[6] helloMessagesSent 2
scalar EDVRPScalabilityNetwork.router[5] helloMessagesSent 3
scalar EDVRPScalabilityNetwork.router[9] helloMessagesSent 2
scalar EDVRPScalabilityNetwork.router[0] helloMessagesSent 2
scalar EDVRPScalabilityNetwork.router[2] helloMessagesSent 3
scalar EDVRPScalabilityNetwork.router[18] helloMessagesSent 2
scalar EDVRPScalabilityNetwork.router[13] helloMessagesSent 2
scalar EDVRPScalabilityNetwork.router[17] helloMessagesSent 2
scalar EDVRPScalabilityNetwork.router[1] helloMessagesSent 3
scalar EDVRPScalabilityNetwork.router[14] helloMessagesSent 2
scalar EDVRPScalabilityNetwork.router[12] helloMessagesSent 2
scalar EDVRPScalabilityNetwork.router[16] helloMessagesSent 2
scalar EDVRPScalabilityNetwork.router[7] helloMessagesSent 2
scalar EDVRPScalabilityNetwork.router[19] helloMessagesSent 1
scalar EDVRPScalabilityNetwork.router[8] helloMessagesSent 2
scalar EDVRPScalabilityNetwork.router[11] helloMessagesSent 2
scalar EDVRPScalabilityNetwork.router[15] helloMessagesSent 2
scalar EDVRPScalabilityNetwork.router[4] helloMessagesSent 3
scalar EDVRPScalabilityNetwork.router[3] helloMessagesSent 3
scalar EDVRPScalabilityNetwork.router[10] helloMessagesSent 2
scalar EDVRPScalabilityNetwork.router[6] helloMessagesSent 2
scalar EDVRPScalabilityNetwork.router[5] helloMessagesSent 3
scalar EDVRPScalabilityNetwork.router[9] helloMessagesSent 2
scalar EDVRPScalabilityNetwork.router[0] helloMessagesSent 2
scalar EDVRPScalabilityNetwork.router[2] helloMessagesSent 3
scalar EDVRPScalabilityNetwork.router[18] helloMessagesSent 2
scalar EDVRPScalabilityNetwork.router[13] helloMessagesSent 2
scalar EDVRPScalabilityNetwork.router[17] helloMessagesSent 2
scalar EDVRPScalabilityNetwork.router[1] helloMessagesSent 3
scalar EDVRPScalabilityNetwork.router[14] helloMessagesSent 2
scalar EDVRPScalabilityNetwork.router[12] helloMessagesSent 2
scalar EDVRPScalabilityNetwork.router[16] helloMessagesSent 2
scalar EDVRPScalabilityNetwork.router[7] helloMessagesSent 2
scalar EDVRPScalabilityNetwork.router[19] helloMessagesSent 1
scalar EDVRPScalabilityNetwork.router[8] helloMessagesSent 2
scalar EDVRPScalabilityNetwork.router[11] helloMessagesSent 2
scalar EDVRPScalabilityNetwork.router[15] helloMessagesSent 2
scalar EDVRPScalabilityNetwork.router[4] helloMessagesSent 3
scalar EDVRPScalabilityNetwork.router[3] helloMessagesSent 3
scalar EDVRPScalabilityNetwork.router[10] helloMessagesSent 2
scalar EDVRPScalabilityNetwork.router[6] helloMessagesSent 2
scalar EDVRPScalabilityNetwork.router[5] helloMessagesSent 3
scalar EDVRPScalabilityNetwork.router[9] helloMessagesSent 2
scalar EDVRPScalabilityNetwork.router[0] helloMessagesSent 2
scalar EDVRPScalabilityNetwork.router[2] helloMessagesSent 3
scalar EDVRPScalabilityNetwork.router[18] helloMessagesSent 2
scalar EDVRPScalabilityNetwork.router[13] helloMessagesSent 2
scalar EDVRPScalabilityNetwork.router[17] helloMessagesSent 2
scalar EDVRPScalabilityNetwork.router[1] helloMessagesSent 3
scalar EDVRPScalabilityNetwork.router[14] helloMessagesSent 2
scalar EDVRPScalabilityNetwork.router[12] helloMessagesSent 2
scalar EDVRPScalabilityNetwork.router[16] helloMessagesSent 2
scalar EDVRPScalabilityNetwork.router[7] helloMessagesSent 2
scalar EDVRPScalabilityNetwork.router[19] helloMessagesSent 1
scalar EDVRPScalabilityNetwork.router[8] helloMessagesSent 2
scalar EDVRPScalabilityNetwork.router[11] helloMessagesSent 2
scalar EDVRPScalabilityNetwork.router[15] helloMessagesSent 2
scalar EDVRPScalabilityNetwork.router[4] helloMessagesSent 3
scalar EDVRPScalabilityNetwork.router[3] helloMessagesSent 3
scalar EDVRPScalabilityNetwork.router[10] helloMessagesSent 2
scalar EDVRPScalabilityNetwork.router[6] helloMessagesSent 2
scalar EDVRPScalabilityNetwork.router[5] helloMessagesSent 3
scalar EDVRPScalabilityNetwork.router[9] helloMessagesSent 2
scalar EDVRPScalabilityNetwork.router[0] helloMessagesSent 2
scalar EDVRPScalabilityNetwork.router[2] helloMessagesSent 3
scalar EDVRPScalabilityNetwork.router[18] helloMessagesSent 2
scalar EDVRPScalabilityNetwork.router[13] helloMessagesSent 2
scalar EDVRPScalabilityNetwork.router[17] helloMessagesSent 2
scalar EDVRPScalabilityNetwork.router[1] helloMessagesSent 3
scalar EDVRPScalabilityNetwork.router[14] helloMessagesSent 2
scalar EDVRPScalabilityNetwork.router[12] helloMessagesSent 2
scalar EDVRPScalabilityNetwork.router[16] helloMessagesSent 2
scalar EDVRPScalabilityNetwork.router[7] helloMessagesSent 2
scalar EDVRPScalabilityNetwork.router[19] helloMessagesSent 1
scalar EDVRPScalabilityNetwork.router[8] helloMessagesSent 2
scalar EDVRPScalabilityNetwork.router[11] helloMessagesSent 2
scalar EDVRPScalabilityNetwork.router[15] helloMessagesSent 2
scalar EDVRPScalabilityNetwork.router[4] helloMessagesSent 3
scalar EDVRPScalabilityNetwork.router[3] helloMessagesSent 3
scalar EDVRPScalabilityNetwork.router[10] helloMessagesSent 2
scalar EDVRPScalabilityNetwork.router[6] helloMessagesSent 2
scalar EDVRPScalabilityNetwork.router[5] helloMessagesSent 3
scalar EDVRPScalabilityNetwork.router[9] helloMessagesSent 2
scalar EDVRPScalabilityNetwork.router[0] helloMessagesSent 2
scalar EDVRPScalabilityNetwork.router[2] helloMessagesSent 3
scalar EDVRPScalabilityNetwork.router[18] helloMessagesSent 2
scalar EDVRPScalabilityNetwork.router[13] helloMessagesSent 2
scalar EDVRPScalabilityNetwork.router[17] helloMessagesSent 2
scalar EDVRPScalabilityNetwork.router[1] helloMessagesSent 3
scalar EDVRPScalabilityNetwork.router[14] helloMessagesSent 2
scalar EDVRPScalabilityNetwork.router[12] helloMessagesSent 2
scalar EDVRPScalabilityNetwork.router[16] helloMessagesSent 2
scalar EDVRPScalabilityNetwork.router[7] helloMessagesSent 2
scalar EDVRPScalabilityNetwork.router[19] helloMessagesSent 1
scalar EDVRPScalabilityNetwork.router[8] helloMessagesSent 2
scalar EDVRPScalabilityNetwork.router[11] helloMessagesSent 2
scalar EDVRPScalabilityNetwork.router[15] helloMessagesSent 2
scalar EDVRPScalabilityNetwork.router[4] helloMessagesSent 3
scalar EDVRPScalabilityNetwork.router[3] helloMessagesSent 3
scalar EDVRPScalabilityNetwork.router[10] helloMessagesSent 2
scalar EDVRPScalabilityNetwork.router[6] helloMessagesSent 2
scalar EDVRPScalabilityNetwork.router[5] helloMessagesSent 3
scalar EDVRPScalabilityNetwork.router[9] helloMessagesSent 2
scalar EDVRPScalabilityNetwork.router[0] helloMessagesSent 2
scalar EDVRPScalabilityNetwork.router[2] helloMessagesSent 3
scalar EDVRPScalabilityNetwork.router[18] helloMessagesSent 2
scalar EDVRPScalabilityNetwork.router[13] helloMessagesSent 2
scalar EDVRPScalabilityNetwork.router[17] helloMessagesSent 2
scalar EDVRPScalabilityNetwork.router[1] helloMessagesSent 3
scalar EDVRPScalabilityNetwork.router[14] helloMessagesSent 2
scalar EDVRPScalabilityNetwork.router[12] helloMessagesSent 2
scalar EDVRPScalabilityNetwork.router[16] helloMessagesSent 2
scalar EDVRPScalabilityNetwork.router[7] helloMessagesSent 2
scalar EDVRPScalabilityNetwork.router[19] helloMessagesSent 1
scalar EDVRPScalabilityNetwork.router[8] helloMessagesSent 2
scalar EDVRPScalabilityNetwork.router[11] helloMessagesSent 2
scalar EDVRPScalabilityNetwork.router[15] helloMessagesSent 2
scalar EDVRPScalabilityNetwork.router[4] helloMessagesSent 3
scalar EDVRPScalabilityNetwork.router[3] helloMessagesSent 3
scalar EDVRPScalabilityNetwork.router[10] helloMessagesSent 2
scalar EDVRPScalabilityNetwork.router[6] helloMessagesSent 2
scalar EDVRPScalabilityNetwork.router[5] helloMessagesSent 3
scalar EDVRPScalabilityNetwork.router[9] helloMessagesSent 2
scalar EDVRPScalabilityNetwork.router[0] helloMessagesSent 2
scalar EDVRPScalabilityNetwork.router[2] helloMessagesSent 3
scalar EDVRPScalabilityNetwork.router[18] helloMessagesSent 2
scalar EDVRPScalabilityNetwork.router[13] helloMessagesSent 2
scalar EDVRPScalabilityNetwork.router[17] helloMessagesSent 2
scalar EDVRPScalabilityNetwork.router[1] helloMessagesSent 3
scalar EDVRPScalabilityNetwork.router[14] helloMessagesSent 2
scalar EDVRPScalabilityNetwork.router[12] helloMessagesSent 2
scalar EDVRPScalabilityNetwork.router[16] helloMessagesSent 2
scalar EDVRPScalabilityNetwork.router[7] helloMessagesSent 2
scalar EDVRPScalabilityNetwork.router[19] helloMessagesSent 1
scalar EDVRPScalabilityNetwork.router[8] helloMessagesSent 2
scalar EDVRPScalabilityNetwork.router[11] helloMessagesSent 2
scalar EDVRPScalabilityNetwork.router[15] helloMessagesSent 2
scalar EDVRPScalabilityNetwork.router[4] helloMessagesSent 3
scalar EDVRPScalabilityNetwork.router[3] helloMessagesSent 3
scalar EDVRPScalabilityNetwork.router[10] helloMessagesSent 2
scalar EDVRPScalabilityNetwork.router[6] helloMessagesSent 2
scalar EDVRPScalabilityNetwork.router[5] helloMessagesSent 3
scalar EDVRPScalabilityNetwork.router[9] helloMessagesSent 2
scalar EDVRPScalabilityNetwork.router[0] helloMessagesSent 2
scalar EDVRPScalabilityNetwork.router[2] helloMessagesSent 3
scalar EDVRPScalabilityNetwork.router[18] helloMessagesSent 2
scalar EDVRPScalabilityNetwork.router[13] helloMessagesSent 2
scalar EDVRPScalabilityNetwork.router[17] helloMessagesSent 2
scalar EDVRPScalabilityNetwork.router[1] helloMessagesSent 3
scalar EDVRPScalabilityNetwork.router[14] helloMessagesSent 2
scalar EDVRPScalabilityNetwork.router[12] helloMessagesSent 2
scalar EDVRPScalabilityNetwork.router[16] helloMessagesSent 2
scalar EDVRPScalabilityNetwork.router[7] helloMessagesSent 2
scalar EDVRPScalabilityNetwork.router[19] helloMessagesSent 1
scalar EDVRPScalabilityNetwork.router[8] helloMessagesSent 2
scalar EDVRPScalabilityNetwork.router[11] helloMessagesSent 2
scalar EDVRPScalabilityNetwork.router[15] helloMessagesSent 2
scalar EDVRPScalabilityNetwork.router[4] helloMessagesSent 3
scalar EDVRPScalabilityNetwork.router[3] helloMessagesSent 3
scalar EDVRPScalabilityNetwork.router[10] helloMessagesSent 2
scalar EDVRPScalabilityNetwork.router[6] helloMessagesSent 2
scalar EDVRPScalabilityNetwork.router[5] helloMessagesSent 3
scalar EDVRPScalabilityNetwork.router[9] helloMessagesSent 2
scalar EDVRPScalabilityNetwork.router[0] helloMessagesSent 2
scalar EDVRPScalabilityNetwork.router[2] helloMessagesSent 3
scalar EDVRPScalabilityNetwork.router[18] helloMessagesSent 2
scalar EDVRPScalabilityNetwork.router[13] helloMessagesSent 2
scalar EDVRPScalabilityNetwork.router[17] helloMessagesSent 2
scalar EDVRPScalabilityNetwork.router[1] helloMessagesSent 3
scalar EDVRPScalabilityNetwork.router[14] helloMessagesSent 2
scalar EDVRPScalabilityNetwork.router[12] helloMessagesSent 2
scalar EDVRPScalabilityNetwork.router[16] helloMessagesSent 2
scalar EDVRPScalabilityNetwork.router[7] helloMessagesSent 2
scalar EDVRPScalabilityNetwork.router[19] helloMessagesSent 1
scalar EDVRPScalabilityNetwork.router[8] helloMessagesSent 2
scalar EDVRPScalabilityNetwork.router[11] helloMessagesSent 2
scalar EDVRPScalabilityNetwork.router[15] helloMessagesSent 2
scalar EDVRPScalabilityNetwork.router[4] helloMessagesSent 3
scalar EDVRPScalabilityNetwork.router[3] helloMessagesSent 3
scalar EDVRPScalabilityNetwork.router[10] helloMessagesSent 2
scalar EDVRPScalabilityNetwork.router[6] helloMessagesSent 2
scalar EDVRPScalabilityNetwork.router[5] helloMessagesSent 3
scalar EDVRPScalabilityNetwork.router[9] helloMessagesSent 2
scalar EDVRPScalabilityNetwork.router[0] helloMessagesSent 2
scalar EDVRPScalabilityNetwork.router[2] helloMessagesSent 3
scalar EDVRPScalabilityNetwork.router[18] helloMessagesSent 2
scalar EDVRPScalabilityNetwork.router[13] helloMessagesSent 2
scalar EDVRPScalabilityNetwork.router[17] helloMessagesSent 2
scalar EDVRPScalabilityNetwork.router[1] helloMessagesSent 3
scalar EDVRPScalabilityNetwork.router[14] helloMessagesSent 2
scalar EDVRPScalabilityNetwork.router[12] helloMessagesSent 2
scalar EDVRPScalabilityNetwork.router[16] helloMessagesSent 2
scalar EDVRPScalabilityNetwork.router[7] helloMessagesSent 2
scalar EDVRPScalabilityNetwork.router[19] helloMessagesSent 1
scalar EDVRPScalabilityNetwork.router[8] helloMessagesSent 2
scalar EDVRPScalabilityNetwork.router[11] helloMessagesSent 2
scalar EDVRPScalabilityNetwork.router[15] helloMessagesSent 2
scalar EDVRPScalabilityNetwork.router[4] helloMessagesSent 3
scalar EDVRPScalabilityNetwork.router[3] helloMessagesSent 3
scalar EDVRPScalabilityNetwork.router[10] helloMessagesSent 2
scalar EDVRPScalabilityNetwork.router[6] helloMessagesSent 2
scalar EDVRPScalabilityNetwork.router[5] helloMessagesSent 3
scalar EDVRPScalabilityNetwork.router[9] helloMessagesSent 2
scalar EDVRPScalabilityNetwork.router[0] helloMessagesSent 2
scalar EDVRPScalabilityNetwork.router[2] helloMessagesSent 3
scalar EDVRPScalabilityNetwork.router[18] helloMessagesSent 2
scalar EDVRPScalabilityNetwork.router[13] helloMessagesSent 2
scalar EDVRPScalabilityNetwork.router[17] helloMessagesSent 2
scalar EDVRPScalabilityNetwork.router[1] helloMessagesSent 3
scalar EDVRPScalabilityNetwork.router[14] helloMessagesSent 2
scalar EDVRPScalabilityNetwork.router[12] helloMessagesSent 2
scalar EDVRPScalabilityNetwork.router[16] helloMessagesSent 2
scalar EDVRPScalabilityNetwork.router[7] helloMessagesSent 2
scalar EDVRPScalabilityNetwork.router[19] helloMessagesSent 1
scalar EDVRPScalabilityNetwork.router[8] helloMessagesSent 2
scalar EDVRPScalabilityNetwork.router[11] helloMessagesSent 2
scalar EDVRPScalabilityNetwork.router[15] helloMessagesSent 2
scalar EDVRPScalabilityNetwork.router[4] helloMessagesSent 3
scalar EDVRPScalabilityNetwork.router[3] helloMessagesSent 3
scalar EDVRPScalabilityNetwork.router[10] helloMessagesSent 2
scalar EDVRPScalabilityNetwork.router[6] helloMessagesSent 2
scalar EDVRPScalabilityNetwork.router[5] helloMessagesSent 3
scalar EDVRPScalabilityNetwork.router[9] helloMessagesSent 2
scalar EDVRPScalabilityNetwork.router[0] helloMessagesSent 2
scalar EDVRPScalabilityNetwork.router[2] helloMessagesSent 3
scalar EDVRPScalabilityNetwork.router[18] helloMessagesSent 2
scalar EDVRPScalabilityNetwork.router[13] helloMessagesSent 2
scalar EDVRPScalabilityNetwork.router[17] helloMessagesSent 2
scalar EDVRPScalabilityNetwork.router[1] helloMessagesSent 3
scalar EDVRPScalabilityNetwork.router[14] helloMessagesSent 2
scalar EDVRPScalabilityNetwork.router[12] helloMessagesSent 2
scalar EDVRPScalabilityNetwork.router[16] helloMessagesSent 2
scalar EDVRPScalabilityNetwork.router[7] helloMessagesSent 2
scalar EDVRPScalabilityNetwork.router[19] helloMessagesSent 1
scalar EDVRPScalabilityNetwork.router[8] helloMessagesSent 2
scalar EDVRPScalabilityNetwork.router[11] helloMessagesSent 2
scalar EDVRPScalabilityNetwork.router[15] helloMessagesSent 2
scalar EDVRPScalabilityNetwork.router[4] helloMessagesSent 3
scalar EDVRPScalabilityNetwork.router[3] helloMessagesSent 3
scalar EDVRPScalabilityNetwork.router[10] helloMessagesSent 2
scalar EDVRPScalabilityNetwork.router[6] helloMessagesSent 2
scalar EDVRPScalabilityNetwork.router[5] helloMessagesSent 3
scalar EDVRPScalabilityNetwork.router[9] helloMessagesSent 2
scalar EDVRPScalabilityNetwork.router[0] helloMessagesSent 2
scalar EDVRPScalabilityNetwork.router[2] helloMessagesSent 3
scalar EDVRPScalabilityNetwork.router[18] helloMessagesSent 2
scalar EDVRPScalabilityNetwork.router[13] helloMessagesSent 2
scalar EDVRPScalabilityNetwork.router[17] helloMessagesSent 2
scalar EDVRPScalabilityNetwork.router[1] helloMessagesSent 3
scalar EDVRPScalabilityNetwork.router[14] helloMessagesSent 2
scalar EDVRPScalabilityNetwork.router[12] helloMessagesSent 2
scalar EDVRPScalabilityNetwork.router[16] helloMessagesSent 2
scalar EDVRPScalabilityNetwork.router[7] helloMessagesSent 2
scalar EDVRPScalabilityNetwork.router[19] helloMessagesSent 1
scalar EDVRPScalabilityNetwork.router[8] helloMessagesSent 2
scalar EDVRPScalabilityNetwork.router[11] helloMessagesSent 2
scalar EDVRPScalabilityNetwork.router[15] helloMessagesSent 2
scalar EDVRPScalabilityNetwork.router[4] helloMessagesSent 3
scalar EDVRPScalabilityNetwork.router[3] helloMessagesSent 3
scalar EDVRPScalabilityNetwork.router[10] helloMessagesSent 2
scalar EDVRPScalabilityNetwork.router[6] helloMessagesSent 2
scalar EDVRPScalabilityNetwork.router[5] helloMessagesSent 3
scalar EDVRPScalabilityNetwork.router[9] helloMessagesSent 2
scalar EDVRPScalabilityNetwork.router[0] helloMessagesSent 2
scalar EDVRPScalabilityNetwork.router[2] helloMessagesSent 3
scalar EDVRPScalabilityNetwork.router[18] helloMessagesSent 2
scalar EDVRPScalabilityNetwork.router[13] helloMessagesSent 2
scalar EDVRPScalabilityNetwork.router[17] helloMessagesSent 2
scalar EDVRPScalabilityNetwork.router[1] helloMessagesSent 3
scalar EDVRPScalabilityNetwork.router[14] helloMessagesSent 2
scalar EDVRPScalabilityNetwork.router[12] helloMessagesSent 2
scalar EDVRPScalabilityNetwork.router[16] helloMessagesSent 2
scalar EDVRPScalabilityNetwork.router[7] helloMessagesSent 2
scalar EDVRPScalabilityNetwork.router[19] helloMessagesSent 1
scalar EDVRPScalabilityNetwork.router[8] helloMessagesSent 2
scalar EDVRPScalabilityNetwork.router[11] helloMessagesSent 2
scalar EDVRPScalabilityNetwork.router[15] helloMessagesSent 2
scalar EDVRPScalabilityNetwork.router[4] helloMessagesSent 3
scalar EDVRPScalabilityNetwork.router[3] helloMessagesSent 3
scalar EDVRPScalabilityNetwork.router[10] helloMessagesSent 2
scalar EDVRPScalabilityNetwork.router[6] helloMessagesSent 2
scalar EDVRPScalabilityNetwork.router[5] helloMessagesSent 3
scalar EDVRPScalabilityNetwork.router[9] helloMessagesSent 2
scalar EDVRPScalabilityNetwork.router[0] helloMessagesSent 2
[...]
attr mutable ""
attr unit s
par EDVRPScalabilityNetwork.router[19].port$o[0].channel datarate 5.11599e+07bps
attr mutable ""
attr unit bps
par EDVRPScalabilityNetwork.router[19].port$o[0].channel ber 0
attr mutable ""
par EDVRPScalabilityNetwork.router[19].port$o[0].channel per 0
attr mutable ""
par EDVRPScalabilityNetwork.router[0].port$o[1].channel typename "\"ned.DatarateChannel\""
par EDVRPScalabilityNetwork.router[0].port$o[1].channel disabled false
attr mutable ""
par EDVRPScalabilityNetwork.router[0].port$o[1].channel delay 0.00614656s
attr mutable ""
attr unit s
par EDVRPScalabilityNetwork.router[0].port$o[1].channel datarate 1.71254e+08bps
attr mutable ""
attr unit bps
par EDVRPScalabilityNetwork.router[0].port$o[1].channel ber 0
attr mutable ""
par EDVRPScalabilityNetwork.router[0].port$o[1].channel per 0
attr mutable ""
par EDVRPScalabilityNetwork.router[3].port$o[2].channel typename "\"ned.DatarateChannel\""
par EDVRPScalabilityNetwork.router[3].port$o[2].channel disabled false
attr mutable ""
par EDVRPScalabilityNetwork.router[3].port$o[2].channel delay 0.00613508s
attr mutable ""
attr unit s
par EDVRPScalabilityNetwork.router[3].port$o[2].channel datarate 9.74427e+07bps
attr mutable ""
attr unit bps
par EDVRPScalabilityNetwork.router[3].port$o[2].channel ber 0
attr mutable ""
par EDVRPScalabilityNetwork.router[3].port$o[2].channel per 0
attr mutable ""
par EDVRPScalabilityNetwork.router[1].port$o[2].channel typename "\"ned.DatarateChannel\""
par EDVRPScalabilityNetwork.router[1].port$o[2].channel disabled false
attr mutable ""
par EDVRPScalabilityNetwork.router[1].port$o[2].channel delay 0.0042416s
attr mutable ""
attr unit s
par EDVRPScalabilityNetwork.router[1].port$o[2].channel datarate 1.76568e+08bps
attr mutable ""
attr unit bps
par EDVRPScalabilityNetwork.router[1].port$o[2].channel ber 0
attr mutable ""
par EDVRPScalabilityNetwork.router[1].port$o[2].channel per 0
attr mutable ""
par EDVRPScalabilityNetwork.router[4].port$o[2].channel typename "\"ned.DatarateChannel\""
par EDVRPScalabilityNetwork.router[4].port$o[2].channel disabled false
attr mutable ""
par EDVRPScalabilityNetwork.router[4].port$o[2].channel delay 0.00600881s
attr mutable ""
attr unit s
par EDVRPScalabilityNetwork.router[4].port$o[2].channel datarate 1.23394e+08bps
attr mutable ""
attr unit bps
par EDVRPScalabilityNetwork.router[4].port$o[2].channel ber 0
attr mutable ""
par EDVRPScalabilityNetwork.router[4].port$o[2].channel per 0
attr mutable ""
par EDVRPScalabilityNetwork.router[2].port$o[2].channel typename "\"ned.DatarateChannel\""
par EDVRPScalabilityNetwork.router[2].port$o[2].channel disabled false
attr mutable ""
par EDVRPScalabilityNetwork.router[2].port$o[2].channel delay 0.00403909s
attr mutable ""
attr unit s
par EDVRPScalabilityNetwork.router[2].port$o[2].channel datarate 1.31018e+08bps
attr mutable ""
attr unit bps
par EDVRPScalabilityNetwork.router[2].port$o[2].channel ber 0
attr mutable ""
par EDVRPScalabilityNetwork.router[2].port$o[2].channel per 0
attr mutable ""
par EDVRPScalabilityNetwork.router[5].port$o[2].channel typename "\"ned.DatarateChannel\""
par EDVRPScalabilityNetwork.router[5].port$o[2].channel disabled false
attr mutable ""
par EDVRPScalabilityNetwork.router[5].port$o[2].channel delay 0.00543676s
attr mutable ""
attr unit s
par EDVRPScalabilityNetwork.router[5].port$o[2].channel datarate 1.73919e+08bps
attr mutable ""
attr unit bps
par EDVRPScalabilityNetwork.router[5].port$o[2].channel ber 0
attr mutable ""
par EDVRPScalabilityNetwork.router[5].port$o[2].channel per 0
attr mutable ""
par EDVRPScalabilityNetwork.router[0] typename "\"edvrp.EDVRPRouter\""
par EDVRPScalabilityNetwork.router[0] routerId 1
par EDVRPScalabilityNetwork.router[0] helloInterval 3s
attr unit s
par EDVRPScalabilityNetwork.router[0] holdTimeout 12s
attr unit s
par EDVRPScalabilityNetwork.router[0] routeTimeout 25s
attr unit s
par EDVRPScalabilityNetwork.router[0] updateInterval 8s
attr unit s
par EDVRPScalabilityNetwork.router[0] linkBandwidth 59.5718Mbps
attr unit Mbps
par EDVRPScalabilityNetwork.router[0] linkLatency 1.63652ms
attr unit ms
par EDVRPScalabilityNetwork.router[0] alpha 1e+06
par EDVRPScalabilityNetwork.router[0] beta 1
scalar EDVRPScalabilityNetwork.router[0] finalTableSize 20
scalar EDVRPScalabilityNetwork.router[0] finalSimTime 500
scalar EDVRPScalabilityNetwork.router[0] routerId 1
par EDVRPScalabilityNetwork.router[1] typename "\"edvrp.EDVRPRouter\""
par EDVRPScalabilityNetwork.router[1] routerId 2
par EDVRPScalabilityNetwork.router[1] helloInterval 3s
attr unit s
par EDVRPScalabilityNetwork.router[1] holdTimeout 12s
attr unit s
par EDVRPScalabilityNetwork.router[1] routeTimeout 25s
attr unit s
par EDVRPScalabilityNetwork.router[1] updateInterval 8s
attr unit s
par EDVRPScalabilityNetwork.router[1] linkBandwidth 73.7333Mbps
attr unit Mbps
par EDVRPScalabilityNetwork.router[1] linkLatency 8.55954ms
attr unit ms
par EDVRPScalabilityNetwork.router[1] alpha 1e+06
par EDVRPScalabilityNetwork.router[1] beta 1
scalar EDVRPScalabilityNetwork.router[1] finalTableSize 20
scalar EDVRPScalabilityNetwork.router[1] finalSimTime 500
scalar EDVRPScalabilityNetwork.router[1] routerId 2
par EDVRPScalabilityNetwork.router[2] typename "\"edvrp.EDVRPRouter\""
par EDVRPScalabilityNetwork.router[2] routerId 3
par EDVRPScalabilityNetwork.router[2] helloInterval 3s
attr unit s
par EDVRPScalabilityNetwork.router[2] holdTimeout 12s
attr unit s
par EDVRPScalabilityNetwork.router[2] routeTimeout 25s
attr unit s
par EDVRPScalabilityNetwork.router[2] updateInterval 8s
attr unit s
par EDVRPScalabilityNetwork.router[2] linkBandwidth 36.1814Mbps
attr unit Mbps
par EDVRPScalabilityNetwork.router[2] linkLatency 2.09196ms
attr unit ms
par EDVRPScalabilityNetwork.router[2] alpha 1e+06
par EDVRPScalabilityNetwork.router[2] beta 1
scalar EDVRPScalabilityNetwork.router[2] finalTableSize 20
scalar EDVRPScalabilityNetwork.router[2] finalSimTime 500
scalar EDVRPScalabilityNetwork.router[2] routerId 3
par EDVRPScalabilityNetwork.router[3] typename "\"edvrp.EDVRPRouter\""
par EDVRPScalabilityNetwork.router[3] routerId 4
par EDVRPScalabilityNetwork.router[3] helloInterval 3s
attr unit s
par EDVRPScalabilityNetwork.router[3] holdTimeout 12s
attr unit s
par EDVRPScalabilityNetwork.router[3] routeTimeout 25s
attr unit s
par EDVRPScalabilityNetwork.router[3] updateInterval 8s
attr unit s
par EDVRPScalabilityNetwork.router[3] linkBandwidth 55.9745Mbps
attr unit Mbps
par EDVRPScalabilityNetwork.router[3] linkLatency 6.1238ms
attr unit ms
par EDVRPScalabilityNetwork.router[3] alpha 1e+06
par EDVRPScalabilityNetwork.router[3] beta 1
scalar EDVRPScalabilityNetwork.router[3] finalTableSize 20
scalar EDVRPScalabilityNetwork.router[3] finalSimTime 500
scalar EDVRPScalabilityNetwork.router[3] routerId 4
par EDVRPScalabilityNetwork.router[4] typename "\"edvrp.EDVRPRouter\""
par EDVRPScalabilityNetwork.router[4] routerId 5
par EDVRPScalabilityNetwork.router[4] helloInterval 3s
attr unit s
par EDVRPScalabilityNetwork.router[4] holdTimeout 12s
attr unit s
par EDVRPScalabilityNetwork.router[4] routeTimeout 25s
attr unit s
par EDVRPScalabilityNetwork.router[4] updateInterval 8s
attr unit s
par EDVRPScalabilityNetwork.router[4] linkBandwidth 90.3652Mbps
attr unit Mbps
par EDVRPScalabilityNetwork.router[4] linkLatency 4.93356ms
attr unit ms
par EDVRPScalabilityNetwork.router[4] alpha 1e+06
par EDVRPScalabilityNetwork.router[4] beta 1
scalar EDVRPScalabilityNetwork.router[4] finalTableSize 20
scalar EDVRPScalabilityNetwork.router[4] finalSimTime 500
scalar EDVRPScalabilityNetwork.router[4] routerId 5
par EDVRPScalabilityNetwork.router[5] typename "\"edvrp.EDVRPRouter\""
par EDVRPScalabilityNetwork.router[5] routerId 6
par EDVRPScalabilityNetwork.router[5] helloInterval 3s
attr unit s
par EDVRPScalabilityNetwork.router[5] holdTimeout 12s
attr unit s
par EDVRPScalabilityNetwork.router[5] routeTimeout 25s
attr unit s
par EDVRPScalabilityNetwork.router[5] updateInterval 8s
attr unit s
par EDVRPScalabilityNetwork.router[5] linkBandwidth 90.6664Mbps
attr unit Mbps
par EDVRPScalabilityNetwork.router[5] linkLatency 1.16873ms
attr unit ms
par EDVRPScalabilityNetwork.router[5] alpha 1e+06
par EDVRPScalabilityNetwork.router[5] beta 1
scalar EDVRPScalabilityNetwork.router[5] finalTableSize 20
scalar EDVRPScalabilityNetwork.router[5] finalSimTime 500
scalar EDVRPScalabilityNetwork.router[5] routerId 6
par EDVRPScalabilityNetwork.router[6] typename "\"edvrp.EDVRPRouter\""
par EDVRPScalabilityNetwork.router[6] routerId 7
par EDVRPScalabilityNetwork.router[6] helloInterval 3s
attr unit s
par EDVRPScalabilityNetwork.router[6] holdTimeout 12s
attr unit s
par EDVRPScalabilityNetwork.router[6] routeTimeout 25s
attr unit s
par EDVRPScalabilityNetwork.router[6] updateInterval 8s
attr unit s
par EDVRPScalabilityNetwork.router[6] linkBandwidth 21.3027Mbps
attr unit Mbps
par EDVRPScalabilityNetwork.router[6] linkLatency 1.36568ms
attr unit ms
par EDVRPScalabilityNetwork.router[6] alpha 1e+06
par EDVRPScalabilityNetwork.router[6] beta 1
scalar EDVRPScalabilityNetwork.router[6] finalTableSize 20
scalar EDVRPScalabilityNetwork.router[6] finalSimTime 500
scalar EDVRPScalabilityNetwork.router[6] routerId 7
par EDVRPScalabilityNetwork.router[7] typename "\"edvrp.EDVRPRouter\""
par EDVRPScalabilityNetwork.router[7] routerId 8
par EDVRPScalabilityNetwork.router[7] helloInterval 3s
attr unit s
par EDVRPScalabilityNetwork.router[7] holdTimeout 12s
attr unit s
par EDVRPScalabilityNetwork.router[7] routeTimeout 25s
attr unit s
par EDVRPScalabilityNetwork.router[7] updateInterval 8s
attr unit s
par EDVRPScalabilityNetwork.router[7] linkBandwidth 28.6519Mbps
attr unit Mbps
par EDVRPScalabilityNetwork.router[7] linkLatency 3.23099ms
attr unit ms
par EDVRPScalabilityNetwork.router[7] alpha 1e+06
par EDVRPScalabilityNetwork.router[7] beta 1
scalar EDVRPScalabilityNetwork.router[7] finalTableSize 20
scalar EDVRPScalabilityNetwork.router[7] finalSimTime 500
scalar EDVRPScalabilityNetwork.router[7] routerId 8
par EDVRPScalabilityNetwork.router[8] typename "\"edvrp.EDVRPRouter\""
par EDVRPScalabilityNetwork.router[8] routerId 9
par EDVRPScalabilityNetwork.router[8] helloInterval 3s
attr unit s
par EDVRPScalabilityNetwork.router[8] holdTimeout 12s
attr unit s
par EDVRPScalabilityNetwork.router[8] routeTimeout 25s
attr unit s
par EDVRPScalabilityNetwork.router[8] updateInterval 8s
attr unit s
par EDVRPScalabilityNetwork.router[8] linkBandwidth 14.632Mbps
attr unit Mbps
par EDVRPScalabilityNetwork.router[8] linkLatency 1.84196ms
attr unit ms
par EDVRPScalabilityNetwork.router[8] alpha 1e+06
par EDVRPScalabilityNetwork.router[8] beta 1
scalar EDVRPScalabilityNetwork.router[8] finalTableSize 20
scalar EDVRPScalabilityNetwork.router[8] finalSimTime 500
scalar EDVRPScalabilityNetwork.router[8] routerId 9
par EDVRPScalabilityNetwork.router[9] typename "\"edvrp.EDVRPRouter\""
par EDVRPScalabilityNetwork.router[9] routerId 10
par EDVRPScalabilityNetwork.router[9] helloInterval 3s
attr unit s
par EDVRPScalabilityNetwork.router[9] holdTimeout 12s
attr unit s
par EDVRPScalabilityNetwork.router[9] routeTimeout 25s
attr unit s
par EDVRPScalabilityNetwork.router[9] updateInterval 8s
attr unit s
par EDVRPScalabilityNetwork.router[9] linkBandwidth 49.6729Mbps
attr unit Mbps
par EDVRPScalabilityNetwork.router[9] linkLatency 7.25341ms
attr unit ms
par EDVRPScalabilityNetwork.router[9] alpha 1e+06
par EDVRPScalabilityNetwork.router[9] beta 1
scalar EDVRPScalabilityNetwork.router[9] finalTableSize 20
scalar EDVRPScalabilityNetwork.router[9] finalSimTime 500
scalar EDVRPScalabilityNetwork.router[9] routerId 10
par EDVRPScalabilityNetwork.router[10] typename "\"edvrp.EDVRPRouter\""
par EDVRPScalabilityNetwork.router[10] routerId 11
par EDVRPScalabilityNetwork.router[10] helloInterval 3s
attr unit s
par EDVRPScalabilityNetwork.router[10] holdTimeout 12s
attr unit s
par EDVRPScalabilityNetwork.router[10] routeTimeout 25s
attr unit s
par EDVRPScalabilityNetwork.router[10] updateInterval 8s
attr unit s
par EDVRPScalabilityNetwork.router[10] linkBandwidth 12.6889Mbps
attr unit Mbps
par EDVRPScalabilityNetwork.router[10] linkLatency 2.30833ms
attr unit ms
par EDVRPScalabilityNetwork.router[10] alpha 1e+06
par EDVRPScalabilityNetwork.router[10] beta 1
scalar EDVRPScalabilityNetwork.router[10] finalTableSize 20
scalar EDVRPScalabilityNetwork.router[10] finalSimTime 500
scalar EDVRPScalabilityNetwork.router[10] routerId 11
par EDVRPScalabilityNetwork.router[11] typename "\"edvrp.EDVRPRouter\""
par EDVRPScalabilityNetwork.router[11] routerId 12
par EDVRPScalabilityNetwork.router[11] helloInterval 3s
attr unit s
par EDVRPScalabilityNetwork.router[11] holdTimeout 12s
attr unit s
par EDVRPScalabilityNetwork.router[11] routeTimeout 25s
attr unit s
par EDVRPScalabilityNetwork.router[11] updateInterval 8s
attr unit s
par EDVRPScalabilityNetwork.router[11] linkBandwidth 51.115Mbps
attr unit Mbps
par EDVRPScalabilityNetwork.router[11] linkLatency 5.07855ms
attr unit ms
par EDVRPScalabilityNetwork.router[11] alpha 1e+06
par EDVRPScalabilityNetwork.router[11] beta 1
scalar EDVRPScalabilityNetwork.router[11] finalTableSize 20
scalar EDVRPScalabilityNetwork.router[11] finalSimTime 500
scalar EDVRPScalabilityNetwork.router[11] routerId 12
par EDVRPScalabilityNetwork.router[12] typename "\"edvrp.EDVRPRouter\""
par EDVRPScalabilityNetwork.router[12] routerId 13
par EDVRPScalabilityNetwork.router[12] helloInterval 3s
attr unit s
par EDVRPScalabilityNetwork.router[12] holdTimeout 12s
attr unit s
par EDVRPScalabilityNetwork.router[12] routeTimeout 25s
attr unit s
par EDVRPScalabilityNetwork.router[12] updateInterval 8s
attr unit s
par EDVRPScalabilityNetwork.router[12] linkBandwidth 68.423Mbps
attr unit Mbps
par EDVRPScalabilityNetwork.router[12] linkLatency 2.94019ms
attr unit ms
par EDVRPScalabilityNetwork.router[12] alpha 1e+06
par EDVRPScalabilityNetwork.router[12] beta 1
scalar EDVRPScalabilityNetwork.router[12] finalTableSize 20
scalar EDVRPScalabilityNetwork.router[12] finalSimTime 500
scalar EDVRPScalabilityNetwork.router[12] routerId 13
par EDVRPScalabilityNetwork.router[13] typename "\"edvrp.EDVRPRouter\""
par EDVRPScalabilityNetwork.router[13] routerId 14
par EDVRPScalabilityNetwork.router[13] helloInterval 3s
attr unit s
par EDVRPScalabilityNetwork.router[13] holdTimeout 12s
attr unit s
par EDVRPScalabilityNetwork.router[13] routeTimeout 25s
attr unit s
par EDVRPScalabilityNetwork.router[13] updateInterval 8s
attr unit s
par EDVRPScalabilityNetwork.router[13] linkBandwidth 35.0639Mbps
attr unit Mbps
par EDVRPScalabilityNetwork.router[13] linkLatency 4.18515ms
attr unit ms
par EDVRPScalabilityNetwork.router[13] alpha 1e+06
par EDVRPScalabilityNetwork.router[13] beta 1
scalar EDVRPScalabilityNetwork.router[13] finalTableSize 20
scalar EDVRPScalabilityNetwork.router[13] finalSimTime 500
scalar EDVRPScalabilityNetwork.router[13] routerId 14
par EDVRPScalabilityNetwork.router[14] typename "\"edvrp.EDVRPRouter\""
par EDVRPScalabilityNetwork.router[14] routerId 15
par EDVRPScalabilityNetwork.router[14] helloInterval 3s
attr unit s
par EDVRPScalabilityNetwork.router[14] holdTimeout 12s
attr unit s
par EDVRPScalabilityNetwork.router[14] routeTimeout 25s
attr unit s
par EDVRPScalabilityNetwork.router[14] updateInterval 8s
attr unit s
par EDVRPScalabilityNetwork.router[14] linkBandwidth 70.8629Mbps
attr unit Mbps
par EDVRPScalabilityNetwork.router[14] linkLatency 5.43372ms
attr unit ms
par EDVRPScalabilityNetwork.router[14] alpha 1e+06
par EDVRPScalabilityNetwork.router[14] beta 1
scalar EDVRPScalabilityNetwork.router[14] finalTableSize 20
scalar EDVRPScalabilityNetwork.router[14] finalSimTime 500
scalar EDVRPScalabilityNetwork.router[14] routerId 15
par EDVRPScalabilityNetwork.router[15] typename "\"edvrp.EDVRPRouter\""
par EDVRPScalabilityNetwork.router[15] routerId 16
par EDVRPScalabilityNetwork.router[15] helloInterval 3s
attr unit s
par EDVRPScalabilityNetwork.router[15] holdTimeout 12s
attr unit s
par EDVRPScalabilityNetwork.router[15] routeTimeout 25s
attr unit s
par EDVRPScalabilityNetwork.router[15] updateInterval 8s
attr unit s
par EDVRPScalabilityNetwork.router[15] linkBandwidth 63.1777Mbps
attr unit Mbps
par EDVRPScalabilityNetwork.router[15] linkLatency 9.21971ms
attr unit ms
par EDVRPScalabilityNetwork.router[15] alpha 1e+06
par EDVRPScalabilityNetwork.router[15] beta 1
scalar EDVRPScalabilityNetwork.router[15] finalTableSize 20
scalar EDVRPScalabilityNetwork.router[15] finalSimTime 500
scalar EDVRPScalabilityNetwork.router[15] routerId 16
par EDVRPScalabilityNetwork.router[16] typename "\"edvrp.EDVRPRouter\""
par EDVRPScalabilityNetwork.router[16] routerId 17
par EDVRPScalabilityNetwork.router[16] helloInterval 3s
attr unit s
par EDVRPScalabilityNetwork.router[16] holdTimeout 12s
attr unit s
par EDVRPScalabilityNetwork.router[16] routeTimeout 25s
attr unit s
par EDVRPScalabilityNetwork.router[16] updateInterval 8s
attr unit s
par EDVRPScalabilityNetwork.router[16] linkBandwidth 12.1584Mbps
attr unit Mbps
par EDVRPScalabilityNetwork.router[16] linkLatency 7.89244ms
attr unit ms
par EDVRPScalabilityNetwork.router[16] alpha 1e+06
par EDVRPScalabilityNetwork.router[16] beta 1
scalar EDVRPScalabilityNetwork.router[16] finalTableSize 20
scalar EDVRPScalabilityNetwork.router[16] finalSimTime 500
scalar EDVRPScalabilityNetwork.router[16] routerId 17
par EDVRPScalabilityNetwork.router[17] typename "\"edvrp.EDVRPRouter\""
par EDVRPScalabilityNetwork.router[17] routerId 18
par EDVRPScalabilityNetwork.router[17] helloInterval 3s
attr unit s
par EDVRPScalabilityNetwork.router[17] holdTimeout 12s
attr unit s
par EDVRPScalabilityNetwork.router[17] routeTimeout 25s
attr unit s
par EDVRPScalabilityNetwork.router[17] updateInterval 8s
attr unit s
par EDVRPScalabilityNetwork.router[17] linkBandwidth 60.2969Mbps
attr unit Mbps
par EDVRPScalabilityNetwork.router[17] linkLatency 9.76283ms
attr unit ms
par EDVRPScalabilityNetwork.router[17] alpha 1e+06
par EDVRPScalabilityNetwork.router[17] beta 1
scalar EDVRPScalabilityNetwork.router[17] finalTableSize 20
scalar EDVRPScalabilityNetwork.router[17] finalSimTime 500
scalar EDVRPScalabilityNetwork.router[17] routerId 18
par EDVRPScalabilityNetwork.router[18] typename "\"edvrp.EDVRPRouter\""
par EDVRPScalabilityNetwork.router[18] routerId 19
par EDVRPScalabilityNetwork.router[18] helloInterval 3s
attr unit s
par EDVRPScalabilityNetwork.router[18] holdTimeout 12s
attr unit s
par EDVRPScalabilityNetwork.router[18] routeTimeout 25s
attr unit s
par EDVRPScalabilityNetwork.router[18] updateInterval 8s
attr unit s
par EDVRPScalabilityNetwork.router[18] linkBandwidth 33.3327Mbps
attr unit Mbps
par EDVRPScalabilityNetwork.router[18] linkLatency 4.62125ms
attr unit ms
par EDVRPScalabilityNetwork.router[18] alpha 1e+06
par EDVRPScalabilityNetwork.router[18] beta 1
scalar EDVRPScalabilityNetwork.router[18] finalTableSize 20
scalar EDVRPScalabilityNetwork.router[18] finalSimTime 500
scalar EDVRPScalabilityNetwork.router[18] routerId 19
par EDVRPScalabilityNetwork.router[19] typename "\"edvrp.EDVRPRouter\""
par EDVRPScalabilityNetwork.router[19] routerId 20
par EDVRPScalabilityNetwork.router[19] helloInterval 3s
attr unit s
par EDVRPScalabilityNetwork.router[19] holdTimeout 12s
attr unit s
par EDVRPScalabilityNetwork.router[19] routeTimeout 25s
attr unit s
par EDVRPScalabilityNetwork.router[19] updateInterval 8s
attr unit s
par EDVRPScalabilityNetwork.router[19] linkBandwidth 47.3591Mbps
attr unit Mbps
par EDVRPScalabilityNetwork.router[19] linkLatency 5.97495ms
attr unit ms
par EDVRPScalabilityNetwork.router[19] alpha 1e+06
par EDVRPScalabilityNetwork.router[19] beta 1
scalar EDVRPScalabilityNetwork.router[19] finalTableSize 20
scalar EDVRPScalabilityNetwork.router[19] finalSimTime 500
scalar EDVRPScalabilityNetwork.router[19] routerId 20
par EDVRPScalabilityNetwork typename "\"edvrp.simulations.EDVRPScalabilityNetwork\""
par EDVRPScalabilityNetwork numRouters 20

