version 3
run EDVRPScalability-7-20250705-23:43:01-96628
attr configname EDVRPScalability
attr datetime 20250705-23:43:01
attr datetimef 20250705-234301
attr experiment EDVRPScalability
attr inifile omnetpp.ini
attr iterationvars $N=15
attr iterationvarsd N=15
attr iterationvarsf N=15-
attr measurement $N=15
attr network edvrp.simulations.EDVRPScalabilityNetwork
attr processid 96628
attr repetition 1
attr replication #1
attr resultdir results
attr runnumber 7
attr seedset 1
itervar N 15
config description "EDVRP scalability test with variable number of routers"
config network edvrp.simulations.EDVRPScalabilityNetwork
config sim-time-limit 500s
config repeat 3
config **.numRouters 15
config **.router*.helloInterval 3s
config **.router*.holdTimeout 12s
config **.router*.routeTimeout 25s
config **.router*.updateInterval 8s
config network edvrp.simulations.EDVRPTestNetwork
config sim-time-limit 300s
config seed-set 1
config num-rngs 3
config rng-class cMersenneTwister
config output-scalar-file results/EDVRPScalability-7.sca
config output-vector-file results/EDVRPScalability-7.vec
config eventlog-file results/EDVRPScalability-7.elog
config **.scalar-recording true
config **.vector-recording true
config **.router*.convergenceTimeSignal.result-recording-modes +histogram,+stats
config **.router*.routingTableSizeSignal.result-recording-modes +vector,+stats
config **.router*.messageCountSignal.result-recording-modes +count,+sum
config debug-on-errors true
config print-undisposed true

scalar EDVRPScalabilityNetwork.router[5] helloMessagesSent 3
scalar EDVRPScalabilityNetwork.router[4] routingTableUpdates 1
scalar EDVRPScalabilityNetwork.router[4] currentTableSize 2
scalar EDVRPScalabilityNetwork.router[2] routingTableUpdates 1
scalar EDVRPScalabilityNetwork.router[2] currentTableSize 2
scalar EDVRPScalabilityNetwork.router[6] routingTableUpdates 1
scalar EDVRPScalabilityNetwork.router[6] currentTableSize 2
scalar EDVRPScalabilityNetwork.router[1] helloMessagesSent 3
scalar EDVRPScalabilityNetwork.router[0] routingTableUpdates 1
scalar EDVRPScalabilityNetwork.router[0] currentTableSize 2
scalar EDVRPScalabilityNetwork.router[2] routingTableUpdates 1
scalar EDVRPScalabilityNetwork.router[2] currentTableSize 3
scalar EDVRPScalabilityNetwork.router[4] routingTableUpdates 1
scalar EDVRPScalabilityNetwork.router[4] currentTableSize 3
scalar EDVRPScalabilityNetwork.router[8] helloMessagesSent 2
scalar EDVRPScalabilityNetwork.router[9] routingTableUpdates 1
scalar EDVRPScalabilityNetwork.router[9] currentTableSize 2
scalar EDVRPScalabilityNetwork.router[7] routingTableUpdates 1
scalar EDVRPScalabilityNetwork.router[7] currentTableSize 2
scalar EDVRPScalabilityNetwork.router[4] helloMessagesSent 3
scalar EDVRPScalabilityNetwork.router[5] routingTableUpdates 1
scalar EDVRPScalabilityNetwork.router[5] currentTableSize 2
scalar EDVRPScalabilityNetwork.router[3] routingTableUpdates 1
scalar EDVRPScalabilityNetwork.router[3] currentTableSize 2
scalar EDVRPScalabilityNetwork.router[2] helloMessagesSent 3
scalar EDVRPScalabilityNetwork.router[1] routingTableUpdates 1
scalar EDVRPScalabilityNetwork.router[1] currentTableSize 2
scalar EDVRPScalabilityNetwork.router[1] routingTableUpdates 1
scalar EDVRPScalabilityNetwork.router[1] currentTableSize 3
scalar EDVRPScalabilityNetwork.router[3] routingTableUpdates 1
scalar EDVRPScalabilityNetwork.router[3] currentTableSize 3
scalar EDVRPScalabilityNetwork.router[5] routingTableUpdates 1
scalar EDVRPScalabilityNetwork.router[5] currentTableSize 3
scalar EDVRPScalabilityNetwork.router[12] helloMessagesSent 2
scalar EDVRPScalabilityNetwork.router[13] helloMessagesSent 2
scalar EDVRPScalabilityNetwork.router[13] routingTableUpdates 1
scalar EDVRPScalabilityNetwork.router[13] currentTableSize 2
scalar EDVRPScalabilityNetwork.router[11] routingTableUpdates 1
scalar EDVRPScalabilityNetwork.router[11] currentTableSize 2
scalar EDVRPScalabilityNetwork.router[12] routingTableUpdates 1
scalar EDVRPScalabilityNetwork.router[12] currentTableSize 2
scalar EDVRPScalabilityNetwork.router[14] routingTableUpdates 1
scalar EDVRPScalabilityNetwork.router[14] currentTableSize 2
scalar EDVRPScalabilityNetwork.router[5] routingTableUpdates 1
scalar EDVRPScalabilityNetwork.router[5] currentTableSize 4
scalar EDVRPScalabilityNetwork.router[1] routingTableUpdates 1
scalar EDVRPScalabilityNetwork.router[1] currentTableSize 4
scalar EDVRPScalabilityNetwork.router[4] routingTableUpdates 1
scalar EDVRPScalabilityNetwork.router[4] currentTableSize 4
scalar EDVRPScalabilityNetwork.router[2] routingTableUpdates 1
scalar EDVRPScalabilityNetwork.router[2] currentTableSize 4
scalar EDVRPScalabilityNetwork.router[11] helloMessagesSent 2
scalar EDVRPScalabilityNetwork.router[12] routingTableUpdates 1
scalar EDVRPScalabilityNetwork.router[12] currentTableSize 3
scalar EDVRPScalabilityNetwork.router[10] routingTableUpdates 1
scalar EDVRPScalabilityNetwork.router[10] currentTableSize 2
scalar EDVRPScalabilityNetwork.router[0] helloMessagesSent 2
scalar EDVRPScalabilityNetwork.router[1] routingTableUpdates 1
scalar EDVRPScalabilityNetwork.router[1] currentTableSize 5
scalar EDVRPScalabilityNetwork.router[3] routingTableUpdates 1
scalar EDVRPScalabilityNetwork.router[3] currentTableSize 4
scalar EDVRPScalabilityNetwork.router[1] routingTableUpdates 1
scalar EDVRPScalabilityNetwork.router[1] currentTableSize 5
scalar EDVRPScalabilityNetwork.router[5] routingTableUpdates 1
scalar EDVRPScalabilityNetwork.router[5] currentTableSize 4
scalar EDVRPScalabilityNetwork.router[10] helloMessagesSent 2
scalar EDVRPScalabilityNetwork.router[11] routingTableUpdates 1
scalar EDVRPScalabilityNetwork.router[11] currentTableSize 3
scalar EDVRPScalabilityNetwork.router[9] routingTableUpdates 1
scalar EDVRPScalabilityNetwork.router[9] currentTableSize 3
scalar EDVRPScalabilityNetwork.router[6] helloMessagesSent 2
scalar EDVRPScalabilityNetwork.router[7] routingTableUpdates 1
scalar EDVRPScalabilityNetwork.router[7] currentTableSize 3
scalar EDVRPScalabilityNetwork.router[5] routingTableUpdates 1
scalar EDVRPScalabilityNetwork.router[5] currentTableSize 5
scalar EDVRPScalabilityNetwork.router[10] routingTableUpdates 1
scalar EDVRPScalabilityNetwork.router[10] currentTableSize 3
scalar EDVRPScalabilityNetwork.router[8] routingTableUpdates 1
scalar EDVRPScalabilityNetwork.router[8] currentTableSize 2
scalar EDVRPScalabilityNetwork.router[13] routingTableUpdates 1
scalar EDVRPScalabilityNetwork.router[13] currentTableSize 3
scalar EDVRPScalabilityNetwork.router[11] routingTableUpdates 1
scalar EDVRPScalabilityNetwork.router[11] currentTableSize 4
scalar EDVRPScalabilityNetwork.router[0] routingTableUpdates 1
scalar EDVRPScalabilityNetwork.router[0] currentTableSize 3
scalar EDVRPScalabilityNetwork.router[0] routingTableUpdates 1
scalar EDVRPScalabilityNetwork.router[0] currentTableSize 4
scalar EDVRPScalabilityNetwork.router[0] routingTableUpdates 1
scalar EDVRPScalabilityNetwork.router[0] currentTableSize 5
scalar EDVRPScalabilityNetwork.router[2] routingTableUpdates 1
scalar EDVRPScalabilityNetwork.router[2] currentTableSize 5
scalar EDVRPScalabilityNetwork.router[4] routingTableUpdates 1
scalar EDVRPScalabilityNetwork.router[4] currentTableSize 5
scalar EDVRPScalabilityNetwork.router[12] routingTableUpdates 1
scalar EDVRPScalabilityNetwork.router[12] currentTableSize 4
scalar EDVRPScalabilityNetwork.router[10] routingTableUpdates 1
scalar EDVRPScalabilityNetwork.router[10] currentTableSize 4
scalar EDVRPScalabilityNetwork.router[10] routingTableUpdates 1
scalar EDVRPScalabilityNetwork.router[10] currentTableSize 5
scalar EDVRPScalabilityNetwork.router[2] routingTableUpdates 1
scalar EDVRPScalabilityNetwork.router[2] currentTableSize 5
scalar EDVRPScalabilityNetwork.router[4] routingTableUpdates 1
scalar EDVRPScalabilityNetwork.router[4] currentTableSize 5
scalar EDVRPScalabilityNetwork.router[9] helloMessagesSent 2
scalar EDVRPScalabilityNetwork.router[0] routingTableUpdates 1
scalar EDVRPScalabilityNetwork.router[0] currentTableSize 5
scalar EDVRPScalabilityNetwork.router[0] routingTableUpdates 1
scalar EDVRPScalabilityNetwork.router[0] currentTableSize 5
scalar EDVRPScalabilityNetwork.router[10] routingTableUpdates 1
scalar EDVRPScalabilityNetwork.router[10] currentTableSize 6
scalar EDVRPScalabilityNetwork.router[8] routingTableUpdates 1
scalar EDVRPScalabilityNetwork.router[8] currentTableSize 3
scalar EDVRPScalabilityNetwork.router[14] helloMessagesSent 1
scalar EDVRPScalabilityNetwork.router[13] routingTableUpdates 1
scalar EDVRPScalabilityNetwork.router[13] currentTableSize 4
scalar EDVRPScalabilityNetwork.router[12] routingTableUpdates 1
scalar EDVRPScalabilityNetwork.router[12] currentTableSize 5
scalar EDVRPScalabilityNetwork.router[14] routingTableUpdates 1
scalar EDVRPScalabilityNetwork.router[14] currentTableSize 3
scalar EDVRPScalabilityNetwork.router[14] routingTableUpdates 1
scalar EDVRPScalabilityNetwork.router[14] currentTableSize 4
scalar EDVRPScalabilityNetwork.router[3] helloMessagesSent 3
scalar EDVRPScalabilityNetwork.router[2] routingTableUpdates 1
scalar EDVRPScalabilityNetwork.router[2] currentTableSize 6
scalar EDVRPScalabilityNetwork.router[5] routingTableUpdates 1
scalar EDVRPScalabilityNetwork.router[5] currentTableSize 6
scalar EDVRPScalabilityNetwork.router[4] routingTableUpdates 1
scalar EDVRPScalabilityNetwork.router[4] currentTableSize 6
scalar EDVRPScalabilityNetwork.router[0] routingTableUpdates 1
scalar EDVRPScalabilityNetwork.router[0] currentTableSize 6
scalar EDVRPScalabilityNetwork.router[1] routingTableUpdates 1
scalar EDVRPScalabilityNetwork.router[1] currentTableSize 6
scalar EDVRPScalabilityNetwork.router[3] routingTableUpdates 1
scalar EDVRPScalabilityNetwork.router[3] currentTableSize 5
scalar EDVRPScalabilityNetwork.router[3] routingTableUpdates 1
scalar EDVRPScalabilityNetwork.router[3] currentTableSize 6
scalar EDVRPScalabilityNetwork.router[4] routingTableUpdates 1
scalar EDVRPScalabilityNetwork.router[4] currentTableSize 7
scalar EDVRPScalabilityNetwork.router[2] routingTableUpdates 1
scalar EDVRPScalabilityNetwork.router[2] currentTableSize 7
scalar EDVRPScalabilityNetwork.router[6] routingTableUpdates 1
scalar EDVRPScalabilityNetwork.router[6] currentTableSize 3
scalar EDVRPScalabilityNetwork.router[6] routingTableUpdates 1
scalar EDVRPScalabilityNetwork.router[6] currentTableSize 4
scalar EDVRPScalabilityNetwork.router[6] routingTableUpdates 1
scalar EDVRPScalabilityNetwork.router[6] currentTableSize 5
scalar EDVRPScalabilityNetwork.router[6] routingTableUpdates 1
scalar EDVRPScalabilityNetwork.router[6] currentTableSize 6
scalar EDVRPScalabilityNetwork.router[6] routingTableUpdates 1
scalar EDVRPScalabilityNetwork.router[6] currentTableSize 7
scalar EDVRPScalabilityNetwork.router[8] routingTableUpdates 1
scalar EDVRPScalabilityNetwork.router[8] currentTableSize 4
scalar EDVRPScalabilityNetwork.router[7] helloMessagesSent 2
scalar EDVRPScalabilityNetwork.router[6] routingTableUpdates 1
scalar EDVRPScalabilityNetwork.router[6] currentTableSize 8
scalar EDVRPScalabilityNetwork.router[8] routingTableUpdates 1
scalar EDVRPScalabilityNetwork.router[8] currentTableSize 5
scalar EDVRPScalabilityNetwork.router[13] routingTableUpdates 1
scalar EDVRPScalabilityNetwork.router[13] currentTableSize 5
scalar EDVRPScalabilityNetwork.router[11] routingTableUpdates 1
scalar EDVRPScalabilityNetwork.router[11] currentTableSize 5
scalar EDVRPScalabilityNetwork.router[1] routingTableUpdates 1
scalar EDVRPScalabilityNetwork.router[1] currentTableSize 7
scalar EDVRPScalabilityNetwork.router[3] routingTableUpdates 1
scalar EDVRPScalabilityNetwork.router[3] currentTableSize 6
scalar EDVRPScalabilityNetwork.router[3] routingTableUpdates 1
scalar EDVRPScalabilityNetwork.router[3] currentTableSize 7
scalar EDVRPScalabilityNetwork.router[5] routingTableUpdates 1
scalar EDVRPScalabilityNetwork.router[5] currentTableSize 7
scalar EDVRPScalabilityNetwork.router[11] routingTableUpdates 1
scalar EDVRPScalabilityNetwork.router[11] currentTableSize 6
scalar EDVRPScalabilityNetwork.router[11] routingTableUpdates 1
scalar EDVRPScalabilityNetwork.router[11] currentTableSize 7
scalar EDVRPScalabilityNetwork.router[9] routingTableUpdates 1
scalar EDVRPScalabilityNetwork.router[9] currentTableSize 4
scalar EDVRPScalabilityNetwork.router[9] routingTableUpdates 1
scalar EDVRPScalabilityNetwork.router[9] currentTableSize 5
scalar EDVRPScalabilityNetwork.router[9] routingTableUpdates 1
scalar EDVRPScalabilityNetwork.router[9] currentTableSize 6
scalar EDVRPScalabilityNetwork.router[0] routingTableUpdates 1
scalar EDVRPScalabilityNetwork.router[0] currentTableSize 6
scalar EDVRPScalabilityNetwork.router[0] routingTableUpdates 1
scalar EDVRPScalabilityNetwork.router[0] currentTableSize 7
scalar EDVRPScalabilityNetwork.router[6] routingTableUpdates 1
scalar EDVRPScalabilityNetwork.router[6] currentTableSize 9
scalar EDVRPScalabilityNetwork.router[9] routingTableUpdates 1
scalar EDVRPScalabilityNetwork.router[9] currentTableSize 7
scalar EDVRPScalabilityNetwork.router[9] routingTableUpdates 1
scalar EDVRPScalabilityNetwork.router[9] currentTableSize 8
scalar EDVRPScalabilityNetwork.router[7] routingTableUpdates 1
scalar EDVRPScalabilityNetwork.router[7] currentTableSize 4
scalar EDVRPScalabilityNetwork.router[7] routingTableUpdates 1
scalar EDVRPScalabilityNetwork.router[7] currentTableSize 5
scalar EDVRPScalabilityNetwork.router[14] routingTableUpdates 1
scalar EDVRPScalabilityNetwork.router[14] currentTableSize 5
scalar EDVRPScalabilityNetwork.router[7] routingTableUpdates 1
scalar EDVRPScalabilityNetwork.router[7] currentTableSize 6
scalar EDVRPScalabilityNetwork.router[7] routingTableUpdates 1
scalar EDVRPScalabilityNetwork.router[7] currentTableSize 7
scalar EDVRPScalabilityNetwork.router[7] routingTableUpdates 1
scalar EDVRPScalabilityNetwork.router[7] currentTableSize 8
scalar EDVRPScalabilityNetwork.router[7] routingTableUpdates 1
scalar EDVRPScalabilityNetwork.router[7] currentTableSize 9
scalar EDVRPScalabilityNetwork.router[7] routingTableUpdates 1
scalar EDVRPScalabilityNetwork.router[7] currentTableSize 10
scalar EDVRPScalabilityNetwork.router[7] routingTableUpdates 1
scalar EDVRPScalabilityNetwork.router[7] currentTableSize 11
scalar EDVRPScalabilityNetwork.router[5] routingTableUpdates 1
scalar EDVRPScalabilityNetwork.router[5] currentTableSize 8
scalar EDVRPScalabilityNetwork.router[5] routingTableUpdates 1
scalar EDVRPScalabilityNetwork.router[5] currentTableSize 9
scalar EDVRPScalabilityNetwork.router[12] routingTableUpdates 1
scalar EDVRPScalabilityNetwork.router[12] currentTableSize 6
scalar EDVRPScalabilityNetwork.router[12] routingTableUpdates 1
scalar EDVRPScalabilityNetwork.router[12] currentTableSize 7
scalar EDVRPScalabilityNetwork.router[10] routingTableUpdates 1
scalar EDVRPScalabilityNetwork.router[10] currentTableSize 7
scalar EDVRPScalabilityNetwork.router[10] routingTableUpdates 1
scalar EDVRPScalabilityNetwork.router[10] currentTableSize 8
scalar EDVRPScalabilityNetwork.router[10] routingTableUpdates 1
scalar EDVRPScalabilityNetwork.router[10] currentTableSize 9
scalar EDVRPScalabilityNetwork.router[8] routingTableUpdates 1
scalar EDVRPScalabilityNetwork.router[8] currentTableSize 6
scalar EDVRPScalabilityNetwork.router[8] routingTableUpdates 1
scalar EDVRPScalabilityNetwork.router[8] currentTableSize 7
scalar EDVRPScalabilityNetwork.router[8] routingTableUpdates 1
scalar EDVRPScalabilityNetwork.router[8] currentTableSize 8
scalar EDVRPScalabilityNetwork.router[7] routingTableUpdates 1
scalar EDVRPScalabilityNetwork.router[7] currentTableSize 12
scalar EDVRPScalabilityNetwork.router[7] routingTableUpdates 1
scalar EDVRPScalabilityNetwork.router[7] currentTableSize 13
scalar EDVRPScalabilityNetwork.router[7] routingTableUpdates 1
scalar EDVRPScalabilityNetwork.router[7] currentTableSize 14
scalar EDVRPScalabilityNetwork.router[11] routingTableUpdates 1
scalar EDVRPScalabilityNetwork.router[11] currentTableSize 8
scalar EDVRPScalabilityNetwork.router[11] routingTableUpdates 1
scalar EDVRPScalabilityNetwork.router[11] currentTableSize 9
scalar EDVRPScalabilityNetwork.router[9] routingTableUpdates 1
scalar EDVRPScalabilityNetwork.router[9] currentTableSize 9
scalar EDVRPScalabilityNetwork.router[6] routingTableUpdates 1
scalar EDVRPScalabilityNetwork.router[6] currentTableSize 10
scalar EDVRPScalabilityNetwork.router[6] routingTableUpdates 1
scalar EDVRPScalabilityNetwork.router[6] currentTableSize 11
scalar EDVRPScalabilityNetwork.router[6] routingTableUpdates 1
scalar EDVRPScalabilityNetwork.router[6] currentTableSize 12
scalar EDVRPScalabilityNetwork.router[6] routingTableUpdates 1
scalar EDVRPScalabilityNetwork.router[6] currentTableSize 13
scalar EDVRPScalabilityNetwork.router[6] routingTableUpdates 1
scalar EDVRPScalabilityNetwork.router[6] currentTableSize 14
scalar EDVRPScalabilityNetwork.router[8] routingTableUpdates 1
scalar EDVRPScalabilityNetwork.router[8] currentTableSize 9
scalar EDVRPScalabilityNetwork.router[8] routingTableUpdates 1
scalar EDVRPScalabilityNetwork.router[8] currentTableSize 10
scalar EDVRPScalabilityNetwork.router[8] routingTableUpdates 1
scalar EDVRPScalabilityNetwork.router[8] currentTableSize 11
scalar EDVRPScalabilityNetwork.router[8] routingTableUpdates 1
scalar EDVRPScalabilityNetwork.router[8] currentTableSize 12
scalar EDVRPScalabilityNetwork.router[8] routingTableUpdates 1
scalar EDVRPScalabilityNetwork.router[8] currentTableSize 13
scalar EDVRPScalabilityNetwork.router[8] routingTableUpdates 1
scalar EDVRPScalabilityNetwork.router[8] currentTableSize 14
scalar EDVRPScalabilityNetwork.router[8] routingTableUpdates 1
scalar EDVRPScalabilityNetwork.router[8] currentTableSize 15
scalar EDVRPScalabilityNetwork.router[13] routingTableUpdates 1
scalar EDVRPScalabilityNetwork.router[13] currentTableSize 6
scalar EDVRPScalabilityNetwork.router[13] routingTableUpdates 1
scalar EDVRPScalabilityNetwork.router[13] currentTableSize 7
scalar EDVRPScalabilityNetwork.router[9] routingTableUpdates 1
scalar EDVRPScalabilityNetwork.router[9] currentTableSize 10
scalar EDVRPScalabilityNetwork.router[9] routingTableUpdates 1
scalar EDVRPScalabilityNetwork.router[9] currentTableSize 11
scalar EDVRPScalabilityNetwork.router[9] routingTableUpdates 1
scalar EDVRPScalabilityNetwork.router[9] currentTableSize 12
scalar EDVRPScalabilityNetwork.router[9] routingTableUpdates 1
scalar EDVRPScalabilityNetwork.router[9] currentTableSize 13
scalar EDVRPScalabilityNetwork.router[9] routingTableUpdates 1
scalar EDVRPScalabilityNetwork.router[9] currentTableSize 14
scalar EDVRPScalabilityNetwork.router[9] routingTableUpdates 1
scalar EDVRPScalabilityNetwork.router[9] currentTableSize 15
scalar EDVRPScalabilityNetwork.router[7] routingTableUpdates 1
scalar EDVRPScalabilityNetwork.router[7] currentTableSize 15
scalar EDVRPScalabilityNetwork.router[5] routingTableUpdates 1
scalar EDVRPScalabilityNetwork.router[5] currentTableSize 10
scalar EDVRPScalabilityNetwork.router[5] routingTableUpdates 1
scalar EDVRPScalabilityNetwork.router[5] currentTableSize 11
scalar EDVRPScalabilityNetwork.router[5] routingTableUpdates 1
scalar EDVRPScalabilityNetwork.router[5] currentTableSize 12
scalar EDVRPScalabilityNetwork.router[5] routingTableUpdates 1
scalar EDVRPScalabilityNetwork.router[5] currentTableSize 13
scalar EDVRPScalabilityNetwork.router[5] routingTableUpdates 1
scalar EDVRPScalabilityNetwork.router[5] currentTableSize 14
scalar EDVRPScalabilityNetwork.router[4] routingTableUpdates 1
scalar EDVRPScalabilityNetwork.router[4] currentTableSize 8
scalar EDVRPScalabilityNetwork.router[4] routingTableUpdates 1
scalar EDVRPScalabilityNetwork.router[4] currentTableSize 9
scalar EDVRPScalabilityNetwork.router[2] routingTableUpdates 1
scalar EDVRPScalabilityNetwork.router[2] currentTableSize 8
scalar EDVRPScalabilityNetwork.router[2] routingTableUpdates 1
scalar EDVRPScalabilityNetwork.router[2] currentTableSize 9
scalar EDVRPScalabilityNetwork.router[14] routingTableUpdates 1
scalar EDVRPScalabilityNetwork.router[14] currentTableSize 6
scalar EDVRPScalabilityNetwork.router[14] routingTableUpdates 1
scalar EDVRPScalabilityNetwork.router[14] currentTableSize 7
scalar EDVRPScalabilityNetwork.router[10] routingTableUpdates 1
scalar EDVRPScalabilityNetwork.router[10] currentTableSize 10
scalar EDVRPScalabilityNetwork.router[10] routingTableUpdates 1
scalar EDVRPScalabilityNetwork.router[10] currentTableSize 11
scalar EDVRPScalabilityNetwork.router[10] routingTableUpdates 1
scalar EDVRPScalabilityNetwork.router[10] currentTableSize 12
scalar EDVRPScalabilityNetwork.router[10] routingTableUpdates 1
scalar EDVRPScalabilityNetwork.router[10] currentTableSize 13
scalar EDVRPScalabilityNetwork.router[10] routingTableUpdates 1
scalar EDVRPScalabilityNetwork.router[10] currentTableSize 14
scalar EDVRPScalabilityNetwork.router[10] routingTableUpdates 1
scalar EDVRPScalabilityNetwork.router[10] currentTableSize 15
scalar EDVRPScalabilityNetwork.router[4] routingTableUpdates 1
scalar EDVRPScalabilityNetwork.router[4] currentTableSize 10
scalar EDVRPScalabilityNetwork.router[4] routingTableUpdates 1
scalar EDVRPScalabilityNetwork.router[4] currentTableSize 11
scalar EDVRPScalabilityNetwork.router[4] routingTableUpdates 1
scalar EDVRPScalabilityNetwork.router[4] currentTableSize 12
scalar EDVRPScalabilityNetwork.router[4] routingTableUpdates 1
scalar EDVRPScalabilityNetwork.router[4] currentTableSize 13
scalar EDVRPScalabilityNetwork.router[4] routingTableUpdates 1
scalar EDVRPScalabilityNetwork.router[4] currentTableSize 14
scalar EDVRPScalabilityNetwork.router[2] routingTableUpdates 1
scalar EDVRPScalabilityNetwork.router[2] currentTableSize 10
scalar EDVRPScalabilityNetwork.router[2] routingTableUpdates 1
scalar EDVRPScalabilityNetwork.router[2] currentTableSize 11
scalar EDVRPScalabilityNetwork.router[2] routingTableUpdates 1
scalar EDVRPScalabilityNetwork.router[2] currentTableSize 12
scalar EDVRPScalabilityNetwork.router[2] routingTableUpdates 1
scalar EDVRPScalabilityNetwork.router[2] currentTableSize 13
scalar EDVRPScalabilityNetwork.router[2] routingTableUpdates 1
scalar EDVRPScalabilityNetwork.router[2] currentTableSize 14
scalar EDVRPScalabilityNetwork.router[1] routingTableUpdates 1
scalar EDVRPScalabilityNetwork.router[1] currentTableSize 8
scalar EDVRPScalabilityNetwork.router[1] routingTableUpdates 1
scalar EDVRPScalabilityNetwork.router[1] currentTableSize 9
scalar EDVRPScalabilityNetwork.router[1] routingTableUpdates 1
scalar EDVRPScalabilityNetwork.router[1] currentTableSize 10
scalar EDVRPScalabilityNetwork.router[1] routingTableUpdates 1
scalar EDVRPScalabilityNetwork.router[1] currentTableSize 11
scalar EDVRPScalabilityNetwork.router[1] routingTableUpdates 1
scalar EDVRPScalabilityNetwork.router[1] currentTableSize 12
scalar EDVRPScalabilityNetwork.router[1] routingTableUpdates 1
scalar EDVRPScalabilityNetwork.router[1] currentTableSize 13
scalar EDVRPScalabilityNetwork.router[1] routingTableUpdates 1
scalar EDVRPScalabilityNetwork.router[1] currentTableSize 14
scalar EDVRPScalabilityNetwork.router[3] routingTableUpdates 1
scalar EDVRPScalabilityNetwork.router[3] currentTableSize 8
scalar EDVRPScalabilityNetwork.router[3] routingTableUpdates 1
scalar EDVRPScalabilityNetwork.router[3] currentTableSize 9
scalar EDVRPScalabilityNetwork.router[3] routingTableUpdates 1
scalar EDVRPScalabilityNetwork.router[3] currentTableSize 10
scalar EDVRPScalabilityNetwork.router[3] routingTableUpdates 1
scalar EDVRPScalabilityNetwork.router[3] currentTableSize 11
scalar EDVRPScalabilityNetwork.router[3] routingTableUpdates 1
scalar EDVRPScalabilityNetwork.router[3] currentTableSize 12
scalar EDVRPScalabilityNetwork.router[3] routingTableUpdates 1
scalar EDVRPScalabilityNetwork.router[3] currentTableSize 13
scalar EDVRPScalabilityNetwork.router[3] routingTableUpdates 1
scalar EDVRPScalabilityNetwork.router[3] currentTableSize 14
scalar EDVRPScalabilityNetwork.router[12] routingTableUpdates 1
scalar EDVRPScalabilityNetwork.router[12] currentTableSize 8
scalar EDVRPScalabilityNetwork.router[12] routingTableUpdates 1
scalar EDVRPScalabilityNetwork.router[12] currentTableSize 9
scalar EDVRPScalabilityNetwork.router[0] routingTableUpdates 1
scalar EDVRPScalabilityNetwork.router[0] currentTableSize 8
scalar EDVRPScalabilityNetwork.router[0] routingTableUpdates 1
scalar EDVRPScalabilityNetwork.router[0] currentTableSize 9
scalar EDVRPScalabilityNetwork.router[0] routingTableUpdates 1
scalar EDVRPScalabilityNetwork.router[0] currentTableSize 10
scalar EDVRPScalabilityNetwork.router[0] routingTableUpdates 1
scalar EDVRPScalabilityNetwork.router[0] currentTableSize 11
scalar EDVRPScalabilityNetwork.router[0] routingTableUpdates 1
scalar EDVRPScalabilityNetwork.router[0] currentTableSize 12
scalar EDVRPScalabilityNetwork.router[0] routingTableUpdates 1
scalar EDVRPScalabilityNetwork.router[0] currentTableSize 13
scalar EDVRPScalabilityNetwork.router[0] routingTableUpdates 1
scalar EDVRPScalabilityNetwork.router[0] currentTableSize 14
scalar EDVRPScalabilityNetwork.router[0] routingTableUpdates 1
scalar EDVRPScalabilityNetwork.router[0] currentTableSize 14
scalar EDVRPScalabilityNetwork.router[0] routingTableUpdates 1
scalar EDVRPScalabilityNetwork.router[0] currentTableSize 14
scalar EDVRPScalabilityNetwork.router[0] routingTableUpdates 1
scalar EDVRPScalabilityNetwork.router[0] currentTableSize 14
scalar EDVRPScalabilityNetwork.router[0] routingTableUpdates 1
scalar EDVRPScalabilityNetwork.router[0] currentTableSize 14
scalar EDVRPScalabilityNetwork.router[0] routingTableUpdates 1
scalar EDVRPScalabilityNetwork.router[0] currentTableSize 14
scalar EDVRPScalabilityNetwork.router[0] routingTableUpdates 1
scalar EDVRPScalabilityNetwork.router[0] currentTableSize 14
scalar EDVRPScalabilityNetwork.router[0] routingTableUpdates 1
scalar EDVRPScalabilityNetwork.router[0] currentTableSize 14
scalar EDVRPScalabilityNetwork.router[13] routingTableUpdates 1
scalar EDVRPScalabilityNetwork.router[13] currentTableSize 8
scalar EDVRPScalabilityNetwork.router[13] routingTableUpdates 1
scalar EDVRPScalabilityNetwork.router[13] currentTableSize 9
scalar EDVRPScalabilityNetwork.router[11] routingTableUpdates 1
scalar EDVRPScalabilityNetwork.router[11] currentTableSize 10
scalar EDVRPScalabilityNetwork.router[11] routingTableUpdates 1
scalar EDVRPScalabilityNetwork.router[11] currentTableSize 11
scalar EDVRPScalabilityNetwork.router[11] routingTableUpdates 1
scalar EDVRPScalabilityNetwork.router[11] currentTableSize 12
scalar EDVRPScalabilityNetwork.router[11] routingTableUpdates 1
scalar EDVRPScalabilityNetwork.router[11] currentTableSize 13
scalar EDVRPScalabilityNetwork.router[11] routingTableUpdates 1
scalar EDVRPScalabilityNetwork.router[11] currentTableSize 14
scalar EDVRPScalabilityNetwork.router[11] routingTableUpdates 1
scalar EDVRPScalabilityNetwork.router[11] currentTableSize 15
scalar EDVRPScalabilityNetwork.router[6] routingTableUpdates 1
scalar EDVRPScalabilityNetwork.router[6] currentTableSize 15
scalar EDVRPScalabilityNetwork.router[5] routingTableUpdates 1
scalar EDVRPScalabilityNetwork.router[5] currentTableSize 15
scalar EDVRPScalabilityNetwork.router[14] routingTableUpdates 1
scalar EDVRPScalabilityNetwork.router[14] currentTableSize 8
scalar EDVRPScalabilityNetwork.router[14] routingTableUpdates 1
scalar EDVRPScalabilityNetwork.router[14] currentTableSize 9
scalar EDVRPScalabilityNetwork.router[12] routingTableUpdates 1
scalar EDVRPScalabilityNetwork.router[12] currentTableSize 10
scalar EDVRPScalabilityNetwork.router[12] routingTableUpdates 1
scalar EDVRPScalabilityNetwork.router[12] currentTableSize 11
scalar EDVRPScalabilityNetwork.router[12] routingTableUpdates 1
scalar EDVRPScalabilityNetwork.router[12] currentTableSize 12
scalar EDVRPScalabilityNetwork.router[12] routingTableUpdates 1
scalar EDVRPScalabilityNetwork.router[12] currentTableSize 13
scalar EDVRPScalabilityNetwork.router[12] routingTableUpdates 1
scalar EDVRPScalabilityNetwork.router[12] currentTableSize 14
scalar EDVRPScalabilityNetwork.router[12] routingTableUpdates 1
scalar EDVRPScalabilityNetwork.router[12] currentTableSize 15
scalar EDVRPScalabilityNetwork.router[4] routingTableUpdates 1
scalar EDVRPScalabilityNetwork.router[4] currentTableSize 15
scalar EDVRPScalabilityNetwork.router[2] routingTableUpdates 1
scalar EDVRPScalabilityNetwork.router[2] currentTableSize 15
scalar EDVRPScalabilityNetwork.router[13] routingTableUpdates 1
scalar EDVRPScalabilityNetwork.router[13] currentTableSize 10
scalar EDVRPScalabilityNetwork.router[13] routingTableUpdates 1
scalar EDVRPScalabilityNetwork.router[13] currentTableSize 11
scalar EDVRPScalabilityNetwork.router[13] routingTableUpdates 1
scalar EDVRPScalabilityNetwork.router[13] currentTableSize 12
scalar EDVRPScalabilityNetwork.router[13] routingTableUpdates 1
scalar EDVRPScalabilityNetwork.router[13] currentTableSize 13
scalar EDVRPScalabilityNetwork.router[13] routingTableUpdates 1
scalar EDVRPScalabilityNetwork.router[13] currentTableSize 14
scalar EDVRPScalabilityNetwork.router[13] routingTableUpdates 1
scalar EDVRPScalabilityNetwork.router[13] currentTableSize 15
scalar EDVRPScalabilityNetwork.router[1] routingTableUpdates 1
scalar EDVRPScalabilityNetwork.router[1] currentTableSize 15
scalar EDVRPScalabilityNetwork.router[3] routingTableUpdates 1
scalar EDVRPScalabilityNetwork.router[3] currentTableSize 15
scalar EDVRPScalabilityNetwork.router[5] helloMessagesSent 3
scalar EDVRPScalabilityNetwork.router[1] helloMessagesSent 3
scalar EDVRPScalabilityNetwork.router[8] helloMessagesSent 2
scalar EDVRPScalabilityNetwork.router[14] routingTableUpdates 1
scalar EDVRPScalabilityNetwork.router[14] currentTableSize 10
scalar EDVRPScalabilityNetwork.router[14] routingTableUpdates 1
scalar EDVRPScalabilityNetwork.router[14] currentTableSize 11
scalar EDVRPScalabilityNetwork.router[14] routingTableUpdates 1
scalar EDVRPScalabilityNetwork.router[14] currentTableSize 12
scalar EDVRPScalabilityNetwork.router[14] routingTableUpdates 1
scalar EDVRPScalabilityNetwork.router[14] currentTableSize 13
scalar EDVRPScalabilityNetwork.router[14] routingTableUpdates 1
scalar EDVRPScalabilityNetwork.router[14] currentTableSize 14
scalar EDVRPScalabilityNetwork.router[14] routingTableUpdates 1
scalar EDVRPScalabilityNetwork.router[14] currentTableSize 15
scalar EDVRPScalabilityNetwork.router[4] helloMessagesSent 3
scalar EDVRPScalabilityNetwork.router[2] helloMessagesSent 3
scalar EDVRPScalabilityNetwork.router[0] routingTableUpdates 1
scalar EDVRPScalabilityNetwork.router[0] currentTableSize 15
scalar EDVRPScalabilityNetwork.router[12] helloMessagesSent 2
scalar EDVRPScalabilityNetwork.router[13] helloMessagesSent 2
scalar EDVRPScalabilityNetwork.router[11] helloMessagesSent 2
scalar EDVRPScalabilityNetwork.router[0] helloMessagesSent 2
scalar EDVRPScalabilityNetwork.router[10] helloMessagesSent 2
scalar EDVRPScalabilityNetwork.router[6] helloMessagesSent 2
scalar EDVRPScalabilityNetwork.router[9] helloMessagesSent 2
scalar EDVRPScalabilityNetwork.router[14] helloMessagesSent 1
scalar EDVRPScalabilityNetwork.router[3] helloMessagesSent 3
scalar EDVRPScalabilityNetwork.router[7] helloMessagesSent 2
scalar EDVRPScalabilityNetwork.router[5] helloMessagesSent 3
scalar EDVRPScalabilityNetwork.router[1] helloMessagesSent 3
scalar EDVRPScalabilityNetwork.router[8] helloMessagesSent 2
scalar EDVRPScalabilityNetwork.router[4] helloMessagesSent 3
scalar EDVRPScalabilityNetwork.router[2] helloMessagesSent 3
scalar EDVRPScalabilityNetwork.router[12] helloMessagesSent 2
scalar EDVRPScalabilityNetwork.router[13] helloMessagesSent 2
scalar EDVRPScalabilityNetwork.router[11] helloMessagesSent 2
scalar EDVRPScalabilityNetwork.router[0] helloMessagesSent 2
scalar EDVRPScalabilityNetwork.router[10] helloMessagesSent 2
scalar EDVRPScalabilityNetwork.router[6] helloMessagesSent 2
scalar EDVRPScalabilityNetwork.router[9] helloMessagesSent 2
scalar EDVRPScalabilityNetwork.router[14] helloMessagesSent 1
scalar EDVRPScalabilityNetwork.router[3] helloMessagesSent 3
scalar EDVRPScalabilityNetwork.router[7] helloMessagesSent 2
scalar EDVRPScalabilityNetwork.router[5] helloMessagesSent 3
scalar EDVRPScalabilityNetwork.router[1] helloMessagesSent 3
scalar EDVRPScalabilityNetwork.router[8] helloMessagesSent 2
scalar EDVRPScalabilityNetwork.router[4] helloMessagesSent 3
scalar EDVRPScalabilityNetwork.router[2] helloMessagesSent 3
scalar EDVRPScalabilityNetwork.router[12] helloMessagesSent 2
scalar EDVRPScalabilityNetwork.router[13] helloMessagesSent 2
scalar EDVRPScalabilityNetwork.router[11] helloMessagesSent 2
scalar EDVRPScalabilityNetwork.router[0] helloMessagesSent 2
scalar EDVRPScalabilityNetwork.router[10] helloMessagesSent 2
scalar EDVRPScalabilityNetwork.router[6] helloMessagesSent 2
scalar EDVRPScalabilityNetwork.router[9] helloMessagesSent 2
scalar EDVRPScalabilityNetwork.router[14] helloMessagesSent 1
scalar EDVRPScalabilityNetwork.router[3] helloMessagesSent 3
scalar EDVRPScalabilityNetwork.router[7] helloMessagesSent 2
scalar EDVRPScalabilityNetwork.router[5] helloMessagesSent 3
scalar EDVRPScalabilityNetwork.router[1] helloMessagesSent 3
scalar EDVRPScalabilityNetwork.router[8] helloMessagesSent 2
scalar EDVRPScalabilityNetwork.router[4] helloMessagesSent 3
scalar EDVRPScalabilityNetwork.router[2] helloMessagesSent 3
scalar EDVRPScalabilityNetwork.router[12] helloMessagesSent 2
scalar EDVRPScalabilityNetwork.router[13] helloMessagesSent 2
scalar EDVRPScalabilityNetwork.router[11] helloMessagesSent 2
scalar EDVRPScalabilityNetwork.router[0] helloMessagesSent 2
scalar EDVRPScalabilityNetwork.router[10] helloMessagesSent 2
scalar EDVRPScalabilityNetwork.router[6] helloMessagesSent 2
scalar EDVRPScalabilityNetwork.router[9] helloMessagesSent 2
scalar EDVRPScalabilityNetwork.router[14] helloMessagesSent 1
scalar EDVRPScalabilityNetwork.router[3] helloMessagesSent 3
scalar EDVRPScalabilityNetwork.router[7] helloMessagesSent 2
scalar EDVRPScalabilityNetwork.router[5] helloMessagesSent 3
scalar EDVRPScalabilityNetwork.router[1] helloMessagesSent 3
scalar EDVRPScalabilityNetwork.router[8] helloMessagesSent 2
scalar EDVRPScalabilityNetwork.router[4] helloMessagesSent 3
scalar EDVRPScalabilityNetwork.router[2] helloMessagesSent 3
scalar EDVRPScalabilityNetwork.router[12] helloMessagesSent 2
scalar EDVRPScalabilityNetwork.router[13] helloMessagesSent 2
scalar EDVRPScalabilityNetwork.router[11] helloMessagesSent 2
scalar EDVRPScalabilityNetwork.router[0] helloMessagesSent 2
scalar EDVRPScalabilityNetwork.router[10] helloMessagesSent 2
scalar EDVRPScalabilityNetwork.router[6] helloMessagesSent 2
scalar EDVRPScalabilityNetwork.router[9] helloMessagesSent 2
scalar EDVRPScalabilityNetwork.router[14] helloMessagesSent 1
scalar EDVRPScalabilityNetwork.router[3] helloMessagesSent 3
scalar EDVRPScalabilityNetwork.router[7] helloMessagesSent 2
scalar EDVRPScalabilityNetwork.router[5] helloMessagesSent 3
scalar EDVRPScalabilityNetwork.router[1] helloMessagesSent 3
scalar EDVRPScalabilityNetwork.router[8] helloMessagesSent 2
scalar EDVRPScalabilityNetwork.router[4] helloMessagesSent 3
scalar EDVRPScalabilityNetwork.router[2] helloMessagesSent 3
scalar EDVRPScalabilityNetwork.router[12] helloMessagesSent 2
scalar EDVRPScalabilityNetwork.router[13] helloMessagesSent 2
scalar EDVRPScalabilityNetwork.router[11] helloMessagesSent 2
scalar EDVRPScalabilityNetwork.router[0] helloMessagesSent 2
scalar EDVRPScalabilityNetwork.router[10] helloMessagesSent 2
scalar EDVRPScalabilityNetwork.router[6] helloMessagesSent 2
scalar EDVRPScalabilityNetwork.router[9] helloMessagesSent 2
scalar EDVRPScalabilityNetwork.router[14] helloMessagesSent 1
scalar EDVRPScalabilityNetwork.router[3] helloMessagesSent 3
scalar EDVRPScalabilityNetwork.router[7] helloMessagesSent 2
scalar EDVRPScalabilityNetwork.router[5] helloMessagesSent 3
scalar EDVRPScalabilityNetwork.router[1] helloMessagesSent 3
scalar EDVRPScalabilityNetwork.router[8] helloMessagesSent 2
scalar EDVRPScalabilityNetwork.router[4] helloMessagesSent 3
scalar EDVRPScalabilityNetwork.router[2] helloMessagesSent 3
scalar EDVRPScalabilityNetwork.router[12] helloMessagesSent 2
scalar EDVRPScalabilityNetwork.router[13] helloMessagesSent 2
scalar EDVRPScalabilityNetwork.router[11] helloMessagesSent 2
scalar EDVRPScalabilityNetwork.router[0] helloMessagesSent 2
scalar EDVRPScalabilityNetwork.router[10] helloMessagesSent 2
scalar EDVRPScalabilityNetwork.router[6] helloMessagesSent 2
scalar EDVRPScalabilityNetwork.router[9] helloMessagesSent 2
scalar EDVRPScalabilityNetwork.router[14] helloMessagesSent 1
scalar EDVRPScalabilityNetwork.router[3] helloMessagesSent 3
scalar EDVRPScalabilityNetwork.router[7] helloMessagesSent 2
scalar EDVRPScalabilityNetwork.router[5] helloMessagesSent 3
scalar EDVRPScalabilityNetwork.router[1] helloMessagesSent 3
scalar EDVRPScalabilityNetwork.router[8] helloMessagesSent 2
scalar EDVRPScalabilityNetwork.router[4] helloMessagesSent 3
scalar EDVRPScalabilityNetwork.router[2] helloMessagesSent 3
scalar EDVRPScalabilityNetwork.router[12] helloMessagesSent 2
scalar EDVRPScalabilityNetwork.router[13] helloMessagesSent 2
scalar EDVRPScalabilityNetwork.router[11] helloMessagesSent 2
scalar EDVRPScalabilityNetwork.router[0] helloMessagesSent 2
scalar EDVRPScalabilityNetwork.router[10] helloMessagesSent 2
scalar EDVRPScalabilityNetwork.router[6] helloMessagesSent 2
scalar EDVRPScalabilityNetwork.router[9] helloMessagesSent 2
scalar EDVRPScalabilityNetwork.router[14] helloMessagesSent 1
scalar EDVRPScalabilityNetwork.router[3] helloMessagesSent 3
scalar EDVRPScalabilityNetwork.router[7] helloMessagesSent 2
scalar EDVRPScalabilityNetwork.router[5] helloMessagesSent 3
scalar EDVRPScalabilityNetwork.router[1] helloMessagesSent 3
scalar EDVRPScalabilityNetwork.router[8] helloMessagesSent 2
scalar EDVRPScalabilityNetwork.router[4] helloMessagesSent 3
scalar EDVRPScalabilityNetwork.router[2] helloMessagesSent 3
scalar EDVRPScalabilityNetwork.router[12] helloMessagesSent 2
scalar EDVRPScalabilityNetwork.router[13] helloMessagesSent 2
scalar EDVRPScalabilityNetwork.router[11] helloMessagesSent 2
scalar EDVRPScalabilityNetwork.router[0] helloMessagesSent 2
scalar EDVRPScalabilityNetwork.router[10] helloMessagesSent 2
scalar EDVRPScalabilityNetwork.router[6] helloMessagesSent 2
scalar EDVRPScalabilityNetwork.router[9] helloMessagesSent 2
scalar EDVRPScalabilityNetwork.router[14] helloMessagesSent 1
scalar EDVRPScalabilityNetwork.router[3] helloMessagesSent 3
scalar EDVRPScalabilityNetwork.router[7] helloMessagesSent 2
scalar EDVRPScalabilityNetwork.router[5] helloMessagesSent 3
scalar EDVRPScalabilityNetwork.router[1] helloMessagesSent 3
scalar EDVRPScalabilityNetwork.router[8] helloMessagesSent 2
scalar EDVRPScalabilityNetwork.router[4] helloMessagesSent 3
scalar EDVRPScalabilityNetwork.router[2] helloMessagesSent 3
scalar EDVRPScalabilityNetwork.router[12] helloMessagesSent 2
scalar EDVRPScalabilityNetwork.router[13] helloMessagesSent 2
scalar EDVRPScalabilityNetwork.router[11] helloMessagesSent 2
scalar EDVRPScalabilityNetwork.router[0] helloMessagesSent 2
scalar EDVRPScalabilityNetwork.router[10] helloMessagesSent 2
scalar EDVRPScalabilityNetwork.router[6] helloMessagesSent 2
scalar EDVRPScalabilityNetwork.router[9] helloMessagesSent 2
scalar EDVRPScalabilityNetwork.router[14] helloMessagesSent 1
scalar EDVRPScalabilityNetwork.router[3] helloMessagesSent 3
scalar EDVRPScalabilityNetwork.router[7] helloMessagesSent 2
scalar EDVRPScalabilityNetwork.router[5] helloMessagesSent 3
scalar EDVRPScalabilityNetwork.router[1] helloMessagesSent 3
scalar EDVRPScalabilityNetwork.router[8] helloMessagesSent 2
scalar EDVRPScalabilityNetwork.router[4] helloMessagesSent 3
scalar EDVRPScalabilityNetwork.router[2] helloMessagesSent 3
scalar EDVRPScalabilityNetwork.router[12] helloMessagesSent 2
scalar EDVRPScalabilityNetwork.router[13] helloMessagesSent 2
scalar EDVRPScalabilityNetwork.router[11] helloMessagesSent 2
scalar EDVRPScalabilityNetwork.router[0] helloMessagesSent 2
scalar EDVRPScalabilityNetwork.router[10] helloMessagesSent 2
scalar EDVRPScalabilityNetwork.router[6] helloMessagesSent 2
scalar EDVRPScalabilityNetwork.router[9] helloMessagesSent 2
scalar EDVRPScalabilityNetwork.router[14] helloMessagesSent 1
scalar EDVRPScalabilityNetwork.router[3] helloMessagesSent 3
scalar EDVRPScalabilityNetwork.router[7] helloMessagesSent 2
scalar EDVRPScalabilityNetwork.router[5] helloMessagesSent 3
scalar EDVRPScalabilityNetwork.router[1] helloMessagesSent 3
scalar EDVRPScalabilityNetwork.router[8] helloMessagesSent 2
scalar EDVRPScalabilityNetwork.router[4] helloMessagesSent 3
scalar EDVRPScalabilityNetwork.router[2] helloMessagesSent 3
scalar EDVRPScalabilityNetwork.router[12] helloMessagesSent 2
scalar EDVRPScalabilityNetwork.router[13] helloMessagesSent 2
scalar EDVRPScalabilityNetwork.router[11] helloMessagesSent 2
scalar EDVRPScalabilityNetwork.router[0] helloMessagesSent 2
scalar EDVRPScalabilityNetwork.router[10] helloMessagesSent 2
scalar EDVRPScalabilityNetwork.router[6] helloMessagesSent 2
scalar EDVRPScalabilityNetwork.router[9] helloMessagesSent 2
scalar EDVRPScalabilityNetwork.router[14] helloMessagesSent 1
scalar EDVRPScalabilityNetwork.router[3] helloMessagesSent 3
scalar EDVRPScalabilityNetwork.router[7] helloMessagesSent 2
scalar EDVRPScalabilityNetwork.router[5] helloMessagesSent 3
scalar EDVRPScalabilityNetwork.router[1] helloMessagesSent 3
scalar EDVRPScalabilityNetwork.router[8] helloMessagesSent 2
scalar EDVRPScalabilityNetwork.router[4] helloMessagesSent 3
scalar EDVRPScalabilityNetwork.router[2] helloMessagesSent 3
scalar EDVRPScalabilityNetwork.router[12] helloMessagesSent 2
scalar EDVRPScalabilityNetwork.router[13] helloMessagesSent 2
scalar EDVRPScalabilityNetwork.router[11] helloMessagesSent 2
scalar EDVRPScalabilityNetwork.router[0] helloMessagesSent 2
scalar EDVRPScalabilityNetwork.router[10] helloMessagesSent 2
scalar EDVRPScalabilityNetwork.router[6] helloMessagesSent 2
scalar EDVRPScalabilityNetwork.router[9] helloMessagesSent 2
scalar EDVRPScalabilityNetwork.router[14] helloMessagesSent 1
scalar EDVRPScalabilityNetwork.router[3] helloMessagesSent 3
scalar EDVRPScalabilityNetwork.router[7] helloMessagesSent 2
scalar EDVRPScalabilityNetwork.router[5] helloMessagesSent 3
scalar EDVRPScalabilityNetwork.router[1] helloMessagesSent 3
scalar EDVRPScalabilityNetwork.router[8] helloMessagesSent 2
scalar EDVRPScalabilityNetwork.router[4] helloMessagesSent 3
scalar EDVRPScalabilityNetwork.router[2] helloMessagesSent 3
scalar EDVRPScalabilityNetwork.router[12] helloMessagesSent 2
scalar EDVRPScalabilityNetwork.router[13] helloMessagesSent 2
scalar EDVRPScalabilityNetwork.router[11] helloMessagesSent 2
scalar EDVRPScalabilityNetwork.router[0] helloMessagesSent 2
scalar EDVRPScalabilityNetwork.router[10] helloMessagesSent 2
scalar EDVRPScalabilityNetwork.router[6] helloMessagesSent 2
scalar EDVRPScalabilityNetwork.router[9] helloMessagesSent 2
scalar EDVRPScalabilityNetwork.router[14] helloMessagesSent 1
scalar EDVRPScalabilityNetwork.router[3] helloMessagesSent 3
scalar EDVRPScalabilityNetwork.router[7] helloMessagesSent 2
scalar EDVRPScalabilityNetwork.router[5] helloMessagesSent 3
scalar EDVRPScalabilityNetwork.router[1] helloMessagesSent 3
scalar EDVRPScalabilityNetwork.router[8] helloMessagesSent 2
scalar EDVRPScalabilityNetwork.router[4] helloMessagesSent 3
scalar EDVRPScalabilityNetwork.router[2] helloMessagesSent 3
scalar EDVRPScalabilityNetwork.router[12] helloMessagesSent 2
scalar EDVRPScalabilityNetwork.router[13] helloMessagesSent 2
scalar EDVRPScalabilityNetwork.router[11] helloMessagesSent 2
scalar EDVRPScalabilityNetwork.router[0] helloMessagesSent 2
scalar EDVRPScalabilityNetwork.router[10] helloMessagesSent 2
scalar EDVRPScalabilityNetwork.router[6] helloMessagesSent 2
scalar EDVRPScalabilityNetwork.router[9] helloMessagesSent 2
scalar EDVRPScalabilityNetwork.router[14] helloMessagesSent 1
scalar EDVRPScalabilityNetwork.router[3] helloMessagesSent 3
scalar EDVRPScalabilityNetwork.router[7] helloMessagesSent 2
scalar EDVRPScalabilityNetwork.router[5] helloMessagesSent 3
scalar EDVRPScalabilityNetwork.router[1] helloMessagesSent 3
scalar EDVRPScalabilityNetwork.router[8] helloMessagesSent 2
scalar EDVRPScalabilityNetwork.router[4] helloMessagesSent 3
scalar EDVRPScalabilityNetwork.router[2] helloMessagesSent 3
scalar EDVRPScalabilityNetwork.router[12] helloMessagesSent 2
scalar EDVRPScalabilityNetwork.router[13] helloMessagesSent 2
scalar EDVRPScalabilityNetwork.router[11] helloMessagesSent 2
scalar EDVRPScalabilityNetwork.router[0] helloMessagesSent 2
scalar EDVRPScalabilityNetwork.router[10] helloMessagesSent 2
scalar EDVRPScalabilityNetwork.router[6] helloMessagesSent 2
scalar EDVRPScalabilityNetwork.router[9] helloMessagesSent 2
scalar EDVRPScalabilityNetwork.router[14] helloMessagesSent 1
scalar EDVRPScalabilityNetwork.router[3] helloMessagesSent 3
scalar EDVRPScalabilityNetwork.router[7] helloMessagesSent 2
scalar EDVRPScalabilityNetwork.router[5] helloMessagesSent 3
scalar EDVRPScalabilityNetwork.router[1] helloMessagesSent 3
scalar EDVRPScalabilityNetwork.router[8] helloMessagesSent 2
scalar EDVRPScalabilityNetwork.router[4] helloMessagesSent 3
scalar EDVRPScalabilityNetwork.router[2] helloMessagesSent 3
scalar EDVRPScalabilityNetwork.router[12] helloMessagesSent 2
scalar EDVRPScalabilityNetwork.router[13] helloMessagesSent 2
scalar EDVRPScalabilityNetwork.router[11] helloMessagesSent 2
scalar EDVRPScalabilityNetwork.router[0] helloMessagesSent 2
scalar EDVRPScalabilityNetwork.router[10] helloMessagesSent 2
scalar EDVRPScalabilityNetwork.router[6] helloMessagesSent 2
scalar EDVRPScalabilityNetwork.router[9] helloMessagesSent 2
scalar EDVRPScalabilityNetwork.router[14] helloMessagesSent 1
scalar EDVRPScalabilityNetwork.router[3] helloMessagesSent 3
scalar EDVRPScalabilityNetwork.router[7] helloMessagesSent 2
scalar EDVRPScalabilityNetwork.router[5] helloMessagesSent 3
scalar EDVRPScalabilityNetwork.router[1] helloMessagesSent 3
scalar EDVRPScalabilityNetwork.router[8] helloMessagesSent 2
scalar EDVRPScalabilityNetwork.router[4] helloMessagesSent 3
scalar EDVRPScalabilityNetwork.router[2] helloMessagesSent 3
scalar EDVRPScalabilityNetwork.router[12] helloMessagesSent 2
scalar EDVRPScalabilityNetwork.router[13] helloMessagesSent 2
scalar EDVRPScalabilityNetwork.router[11] helloMessagesSent 2
scalar EDVRPScalabilityNetwork.router[0] helloMessagesSent 2
scalar EDVRPScalabilityNetwork.router[10] helloMessagesSent 2
scalar EDVRPScalabilityNetwork.router[6] helloMessagesSent 2
scalar EDVRPScalabilityNetwork.router[9] helloMessagesSent 2
scalar EDVRPScalabilityNetwork.router[14] helloMessagesSent 1
scalar EDVRPScalabilityNetwork.router[3] helloMessagesSent 3
scalar EDVRPScalabilityNetwork.router[7] helloMessagesSent 2
scalar EDVRPScalabilityNetwork.router[5] helloMessagesSent 3
scalar EDVRPScalabilityNetwork.router[1] helloMessagesSent 3
scalar EDVRPScalabilityNetwork.router[8] helloMessagesSent 2
scalar EDVRPScalabilityNetwork.router[4] helloMessagesSent 3
scalar EDVRPScalabilityNetwork.router[2] helloMessagesSent 3
scalar EDVRPScalabilityNetwork.router[12] helloMessagesSent 2
scalar EDVRPScalabilityNetwork.router[13] helloMessagesSent 2
scalar EDVRPScalabilityNetwork.router[11] helloMessagesSent 2
scalar EDVRPScalabilityNetwork.router[0] helloMessagesSent 2
scalar EDVRPScalabilityNetwork.router[10] helloMessagesSent 2
scalar EDVRPScalabilityNetwork.router[6] helloMessagesSent 2
scalar EDVRPScalabilityNetwork.router[9] helloMessagesSent 2
scalar EDVRPScalabilityNetwork.router[14] helloMessagesSent 1
scalar EDVRPScalabilityNetwork.router[3] helloMessagesSent 3
scalar EDVRPScalabilityNetwork.router[7] helloMessagesSent 2
scalar EDVRPScalabilityNetwork.router[5] helloMessagesSent 3
scalar EDVRPScalabilityNetwork.router[1] helloMessagesSent 3
scalar EDVRPScalabilityNetwork.router[8] helloMessagesSent 2
scalar EDVRPScalabilityNetwork.router[4] helloMessagesSent 3
scalar EDVRPScalabilityNetwork.router[2] helloMessagesSent 3
scalar EDVRPScalabilityNetwork.router[12] helloMessagesSent 2
scalar EDVRPScalabilityNetwork.router[13] helloMessagesSent 2
scalar EDVRPScalabilityNetwork.router[11] helloMessagesSent 2
scalar EDVRPScalabilityNetwork.router[0] helloMessagesSent 2
scalar EDVRPScalabilityNetwork.router[10] helloMessagesSent 2
scalar EDVRPScalabilityNetwork.router[6] helloMessagesSent 2
scalar EDVRPScalabilityNetwork.router[9] helloMessagesSent 2
scalar EDVRPScalabilityNetwork.router[14] helloMessagesSent 1
scalar EDVRPScalabilityNetwork.router[3] helloMessagesSent 3
scalar EDVRPScalabilityNetwork.router[7] helloMessagesSent 2
scalar EDVRPScalabilityNetwork.router[5] helloMessagesSent 3
scalar EDVRPScalabilityNetwork.router[1] helloMessagesSent 3
scalar EDVRPScalabilityNetwork.router[8] helloMessagesSent 2
scalar EDVRPScalabilityNetwork.router[4] helloMessagesSent 3
scalar EDVRPScalabilityNetwork.router[2] helloMessagesSent 3
scalar EDVRPScalabilityNetwork.router[12] helloMessagesSent 2
scalar EDVRPScalabilityNetwork.router[13] helloMessagesSent 2
scalar EDVRPScalabilityNetwork.router[11] helloMessagesSent 2
scalar EDVRPScalabilityNetwork.router[0] helloMessagesSent 2
scalar EDVRPScalabilityNetwork.router[10] helloMessagesSent 2
scalar EDVRPScalabilityNetwork.router[6] helloMessagesSent 2
scalar EDVRPScalabilityNetwork.router[9] helloMessagesSent 2
scalar EDVRPScalabilityNetwork.router[14] helloMessagesSent 1
scalar EDVRPScalabilityNetwork.router[3] helloMessagesSent 3
scalar EDVRPScalabilityNetwork.router[7] helloMessagesSent 2
scalar EDVRPScalabilityNetwork.router[5] helloMessagesSent 3
scalar EDVRPScalabilityNetwork.router[1] helloMessagesSent 3
scalar EDVRPScalabilityNetwork.router[8] helloMessagesSent 2
scalar EDVRPScalabilityNetwork.router[4] helloMessagesSent 3
scalar EDVRPScalabilityNetwork.router[2] helloMessagesSent 3
scalar EDVRPScalabilityNetwork.router[12] helloMessagesSent 2
scalar EDVRPScalabilityNetwork.router[13] helloMessagesSent 2
scalar EDVRPScalabilityNetwork.router[11] helloMessagesSent 2
scalar EDVRPScalabilityNetwork.router[0] helloMessagesSent 2
scalar EDVRPScalabilityNetwork.router[10] helloMessagesSent 2
scalar EDVRPScalabilityNetwork.router[6] helloMessagesSent 2
scalar EDVRPScalabilityNetwork.router[9] helloMessagesSent 2
scalar EDVRPScalabilityNetwork.router[14] helloMessagesSent 1
scalar EDVRPScalabilityNetwork.router[3] helloMessagesSent 3
scalar EDVRPScalabilityNetwork.router[7] helloMessagesSent 2
scalar EDVRPScalabilityNetwork.router[5] helloMessagesSent 3
scalar EDVRPScalabilityNetwork.router[1] helloMessagesSent 3
scalar EDVRPScalabilityNetwork.router[8] helloMessagesSent 2
scalar EDVRPScalabilityNetwork.router[4] helloMessagesSent 3
scalar EDVRPScalabilityNetwork.router[2] helloMessagesSent 3
scalar EDVRPScalabilityNetwork.router[12] helloMessagesSent 2
scalar EDVRPScalabilityNetwork.router[13] helloMessagesSent 2
scalar EDVRPScalabilityNetwork.router[11] helloMessagesSent 2
scalar EDVRPScalabilityNetwork.router[0] helloMessagesSent 2
scalar EDVRPScalabilityNetwork.router[10] helloMessagesSent 2
scalar EDVRPScalabilityNetwork.router[6] helloMessagesSent 2
scalar EDVRPScalabilityNetwork.router[9] helloMessagesSent 2
scalar EDVRPScalabilityNetwork.router[14] helloMessagesSent 1
scalar EDVRPScalabilityNetwork.router[3] helloMessagesSent 3
scalar EDVRPScalabilityNetwork.router[7] helloMessagesSent 2
scalar EDVRPScalabilityNetwork.router[5] helloMessagesSent 3
scalar EDVRPScalabilityNetwork.router[1] helloMessagesSent 3
scalar EDVRPScalabilityNetwork.router[8] helloMessagesSent 2
scalar EDVRPScalabilityNetwork.router[4] helloMessagesSent 3
scalar EDVRPScalabilityNetwork.router[2] helloMessagesSent 3
scalar EDVRPScalabilityNetwork.router[12] helloMessagesSent 2
scalar EDVRPScalabilityNetwork.router[13] helloMessagesSent 2
scalar EDVRPScalabilityNetwork.router[11] helloMessagesSent 2
scalar EDVRPScalabilityNetwork.router[0] helloMessagesSent 2
scalar EDVRPScalabilityNetwork.router[10] helloMessagesSent 2
scalar EDVRPScalabilityNetwork.router[6] helloMessagesSent 2
scalar EDVRPScalabilityNetwork.router[9] helloMessagesSent 2
scalar EDVRPScalabilityNetwork.router[14] helloMessagesSent 1
scalar EDVRPScalabilityNetwork.router[3] helloMessagesSent 3
scalar EDVRPScalabilityNetwork.router[7] helloMessagesSent 2
scalar EDVRPScalabilityNetwork.router[5] helloMessagesSent 3
scalar EDVRPScalabilityNetwork.router[1] helloMessagesSent 3
scalar EDVRPScalabilityNetwork.router[8] helloMessagesSent 2
scalar EDVRPScalabilityNetwork.router[4] helloMessagesSent 3
scalar EDVRPScalabilityNetwork.router[2] helloMessagesSent 3
scalar EDVRPScalabilityNetwork.router[12] helloMessagesSent 2
scalar EDVRPScalabilityNetwork.router[13] helloMessagesSent 2
scalar EDVRPScalabilityNetwork.router[11] helloMessagesSent 2
scalar EDVRPScalabilityNetwork.router[0] helloMessagesSent 2
scalar EDVRPScalabilityNetwork.router[10] helloMessagesSent 2
scalar EDVRPScalabilityNetwork.router[6] helloMessagesSent 2
scalar EDVRPScalabilityNetwork.router[9] helloMessagesSent 2
scalar EDVRPScalabilityNetwork.router[14] helloMessagesSent 1
scalar EDVRPScalabilityNetwork.router[3] helloMessagesSent 3
scalar EDVRPScalabilityNetwork.router[7] helloMessagesSent 2
scalar EDVRPScalabilityNetwork.router[5] helloMessagesSent 3
scalar EDVRPScalabilityNetwork.router[1] helloMessagesSent 3
scalar EDVRPScalabilityNetwork.router[8] helloMessagesSent 2
scalar EDVRPScalabilityNetwork.router[4] helloMessagesSent 3
scalar EDVRPScalabilityNetwork.router[2] helloMessagesSent 3
scalar EDVRPScalabilityNetwork.router[12] helloMessagesSent 2
scalar EDVRPScalabilityNetwork.router[13] helloMessagesSent 2
scalar EDVRPScalabilityNetwork.router[11] helloMessagesSent 2
scalar EDVRPScalabilityNetwork.router[0] helloMessagesSent 2
scalar EDVRPScalabilityNetwork.router[10] helloMessagesSent 2
scalar EDVRPScalabilityNetwork.router[6] helloMessagesSent 2
scalar EDVRPScalabilityNetwork.router[9] helloMessagesSent 2
scalar EDVRPScalabilityNetwork.router[14] helloMessagesSent 1
scalar EDVRPScalabilityNetwork.router[3] helloMessagesSent 3
scalar EDVRPScalabilityNetwork.router[7] helloMessagesSent 2
scalar EDVRPScalabilityNetwork.router[5] helloMessagesSent 3
scalar EDVRPScalabilityNetwork.router[1] helloMessagesSent 3
scalar EDVRPScalabilityNetwork.router[8] helloMessagesSent 2
scalar EDVRPScalabilityNetwork.router[4] helloMessagesSent 3
scalar EDVRPScalabilityNetwork.router[2] helloMessagesSent 3
scalar EDVRPScalabilityNetwork.router[12] helloMessagesSent 2
scalar EDVRPScalabilityNetwork.router[13] helloMessagesSent 2
scalar EDVRPScalabilityNetwork.router[11] helloMessagesSent 2
scalar EDVRPScalabilityNetwork.router[0] helloMessagesSent 2
scalar EDVRPScalabilityNetwork.router[10] helloMessagesSent 2
scalar EDVRPScalabilityNetwork.router[6] helloMessagesSent 2
scalar EDVRPScalabilityNetwork.router[9] helloMessagesSent 2
scalar EDVRPScalabilityNetwork.router[14] helloMessagesSent 1
scalar EDVRPScalabilityNetwork.router[3] helloMessagesSent 3
scalar EDVRPScalabilityNetwork.router[7] helloMessagesSent 2
scalar EDVRPScalabilityNetwork.router[5] helloMessagesSent 3
scalar EDVRPScalabilityNetwork.router[1] helloMessagesSent 3
scalar EDVRPScalabilityNetwork.router[8] helloMessagesSent 2
scalar EDVRPScalabilityNetwork.router[4] helloMessagesSent 3
scalar EDVRPScalabilityNetwork.router[2] helloMessagesSent 3
scalar EDVRPScalabilityNetwork.router[12] helloMessagesSent 2
scalar EDVRPScalabilityNetwork.router[13] helloMessagesSent 2
scalar EDVRPScalabilityNetwork.router[11] helloMessagesSent 2
scalar EDVRPScalabilityNetwork.router[0] helloMessagesSent 2
scalar EDVRPScalabilityNetwork.router[10] helloMessagesSent 2
scalar EDVRPScalabilityNetwork.router[6] helloMessagesSent 2
scalar EDVRPScalabilityNetwork.router[9] helloMessagesSent 2
scalar EDVRPScalabilityNetwork.router[14] helloMessagesSent 1
scalar EDVRPScalabilityNetwork.router[3] helloMessagesSent 3
scalar EDVRPScalabilityNetwork.router[7] helloMessagesSent 2
scalar EDVRPScalabilityNetwork.router[5] helloMessagesSent 3
scalar EDVRPScalabilityNetwork.router[1] helloMessagesSent 3
scalar EDVRPScalabilityNetwork.router[8] helloMessagesSent 2
scalar EDVRPScalabilityNetwork.router[4] helloMessagesSent 3
scalar EDVRPScalabilityNetwork.router[2] helloMessagesSent 3
scalar EDVRPScalabilityNetwork.router[12] helloMessagesSent 2
scalar EDVRPScalabilityNetwork.router[13] helloMessagesSent 2
scalar EDVRPScalabilityNetwork.router[11] helloMessagesSent 2
scalar EDVRPScalabilityNetwork.router[0] helloMessagesSent 2
scalar EDVRPScalabilityNetwork.router[10] helloMessagesSent 2
scalar EDVRPScalabilityNetwork.router[6] helloMessagesSent 2
scalar EDVRPScalabilityNetwork.router[9] helloMessagesSent 2
scalar EDVRPScalabilityNetwork.router[14] helloMessagesSent 1
scalar EDVRPScalabilityNetwork.router[3] helloMessagesSent 3
scalar EDVRPScalabilityNetwork.router[7] helloMessagesSent 2
scalar EDVRPScalabilityNetwork.router[5] helloMessagesSent 3
scalar EDVRPScalabilityNetwork.router[1] helloMessagesSent 3
scalar EDVRPScalabilityNetwork.router[8] helloMessagesSent 2
scalar EDVRPScalabilityNetwork.router[4] helloMessagesSent 3
scalar EDVRPScalabilityNetwork.router[2] helloMessagesSent 3
scalar EDVRPScalabilityNetwork.router[12] helloMessagesSent 2
scalar EDVRPScalabilityNetwork.router[13] helloMessagesSent 2
scalar EDVRPScalabilityNetwork.router[11] helloMessagesSent 2
scalar EDVRPScalabilityNetwork.router[0] helloMessagesSent 2
scalar EDVRPScalabilityNetwork.router[10] helloMessagesSent 2
scalar EDVRPScalabilityNetwork.router[6] helloMessagesSent 2
scalar EDVRPScalabilityNetwork.router[9] helloMessagesSent 2
scalar EDVRPScalabilityNetwork.router[14] helloMessagesSent 1
scalar EDVRPScalabilityNetwork.router[3] helloMessagesSent 3
scalar EDVRPScalabilityNetwork.router[7] helloMessagesSent 2
scalar EDVRPScalabilityNetwork.router[5] helloMessagesSent 3
scalar EDVRPScalabilityNetwork.router[1] helloMessagesSent 3
scalar EDVRPScalabilityNetwork.router[8] helloMessagesSent 2
scalar EDVRPScalabilityNetwork.router[4] helloMessagesSent 3
scalar EDVRPScalabilityNetwork.router[2] helloMessagesSent 3
scalar EDVRPScalabilityNetwork.router[12] helloMessagesSent 2
scalar EDVRPScalabilityNetwork.router[13] helloMessagesSent 2
scalar EDVRPScalabilityNetwork.router[11] helloMessagesSent 2
scalar EDVRPScalabilityNetwork.router[0] helloMessagesSent 2
scalar EDVRPScalabilityNetwork.router[10] helloMessagesSent 2
scalar EDVRPScalabilityNetwork.router[6] helloMessagesSent 2
scalar EDVRPScalabilityNetwork.router[9] helloMessagesSent 2
scalar EDVRPScalabilityNetwork.router[14] helloMessagesSent 1
scalar EDVRPScalabilityNetwork.router[3] helloMessagesSent 3
scalar EDVRPScalabilityNetwork.router[7] helloMessagesSent 2
scalar EDVRPScalabilityNetwork.router[5] helloMessagesSent 3
scalar EDVRPScalabilityNetwork.router[1] helloMessagesSent 3
scalar EDVRPScalabilityNetwork.router[8] helloMessagesSent 2
scalar EDVRPScalabilityNetwork.router[4] helloMessagesSent 3
scalar EDVRPScalabilityNetwork.router[2] helloMessagesSent 3
scalar EDVRPScalabilityNetwork.router[12] helloMessagesSent 2
scalar EDVRPScalabilityNetwork.router[13] helloMessagesSent 2
scalar EDVRPScalabilityNetwork.router[11] helloMessagesSent 2
scalar EDVRPScalabilityNetwork.router[0] helloMessagesSent 2
scalar EDVRPScalabilityNetwork.router[10] helloMessagesSent 2
scalar EDVRPScalabilityNetwork.router[6] helloMessagesSent 2
scalar EDVRPScalabilityNetwork.router[9] helloMessagesSent 2
scalar EDVRPScalabilityNetwork.router[14] helloMessagesSent 1
scalar EDVRPScalabilityNetwork.router[3] helloMessagesSent 3
scalar EDVRPScalabilityNetwork.router[7] helloMessagesSent 2
scalar EDVRPScalabilityNetwork.router[5] helloMessagesSent 3
scalar EDVRPScalabilityNetwork.router[1] helloMessagesSent 3
scalar EDVRPScalabilityNetwork.router[8] helloMessagesSent 2
scalar EDVRPScalabilityNetwork.router[4] helloMessagesSent 3
scalar EDVRPScalabilityNetwork.router[2] helloMessagesSent 3
scalar EDVRPScalabilityNetwork.router[12] helloMessagesSent 2
scalar EDVRPScalabilityNetwork.router[13] helloMessagesSent 2
scalar EDVRPScalabilityNetwork.router[11] helloMessagesSent 2
scalar EDVRPScalabilityNetwork.router[0] helloMessagesSent 2
scalar EDVRPScalabilityNetwork.router[10] helloMessagesSent 2
scalar EDVRPScalabilityNetwork.router[6] helloMessagesSent 2
scalar EDVRPScalabilityNetwork.router[9] helloMessagesSent 2
scalar EDVRPScalabilityNetwork.router[14] helloMessagesSent 1
scalar EDVRPScalabilityNetwork.router[3] helloMessagesSent 3
scalar EDVRPScalabilityNetwork.router[7] helloMessagesSent 2
scalar EDVRPScalabilityNetwork.router[5] helloMessagesSent 3
scalar EDVRPScalabilityNetwork.router[1] helloMessagesSent 3
scalar EDVRPScalabilityNetwork.router[8] helloMessagesSent 2
scalar EDVRPScalabilityNetwork.router[4] helloMessagesSent 3
scalar EDVRPScalabilityNetwork.router[2] helloMessagesSent 3
scalar EDVRPScalabilityNetwork.router[12] helloMessagesSent 2
scalar EDVRPScalabilityNetwork.router[13] helloMessagesSent 2
scalar EDVRPScalabilityNetwork.router[11] helloMessagesSent 2
scalar EDVRPScalabilityNetwork.router[0] helloMessagesSent 2
scalar EDVRPScalabilityNetwork.router[10] helloMessagesSent 2
scalar EDVRPScalabilityNetwork.router[6] helloMessagesSent 2
scalar EDVRPScalabilityNetwork.router[9] helloMessagesSent 2
scalar EDVRPScalabilityNetwork.router[14] helloMessagesSent 1
scalar EDVRPScalabilityNetwork.router[3] helloMessagesSent 3
scalar EDVRPScalabilityNetwork.router[7] helloMessagesSent 2
scalar EDVRPScalabilityNetwork.router[5] helloMessagesSent 3
scalar EDVRPScalabilityNetwork.router[1] helloMessagesSent 3
scalar EDVRPScalabilityNetwork.router[8] helloMessagesSent 2
scalar EDVRPScalabilityNetwork.router[4] helloMessagesSent 3
scalar EDVRPScalabilityNetwork.router[2] helloMessagesSent 3
scalar EDVRPScalabilityNetwork.router[12] helloMessagesSent 2
scalar EDVRPScalabilityNetwork.router[13] helloMessagesSent 2
scalar EDVRPScalabilityNetwork.router[11] helloMessagesSent 2
scalar EDVRPScalabilityNetwork.router[0] helloMessagesSent 2
scalar EDVRPScalabilityNetwork.router[10] helloMessagesSent 2
scalar EDVRPScalabilityNetwork.router[6] helloMessagesSent 2
scalar EDVRPScalabilityNetwork.router[9] helloMessagesSent 2
scalar EDVRPScalabilityNetwork.router[14] helloMessagesSent 1
scalar EDVRPScalabilityNetwork.router[3] helloMessagesSent 3
scalar EDVRPScalabilityNetwork.router[7] helloMessagesSent 2
scalar EDVRPScalabilityNetwork.router[5] helloMessagesSent 3
scalar EDVRPScalabilityNetwork.router[1] helloMessagesSent 3
scalar EDVRPScalabilityNetwork.router[8] helloMessagesSent 2
scalar EDVRPScalabilityNetwork.router[4] helloMessagesSent 3
scalar EDVRPScalabilityNetwork.router[2] helloMessagesSent 3
scalar EDVRPScalabilityNetwork.router[12] helloMessagesSent 2
scalar EDVRPScalabilityNetwork.router[13] helloMessagesSent 2
scalar EDVRPScalabilityNetwork.router[11] helloMessagesSent 2
scalar EDVRPScalabilityNetwork.router[0] helloMessagesSent 2
scalar EDVRPScalabilityNetwork.router[10] helloMessagesSent 2
scalar EDVRPScalabilityNetwork.router[6] helloMessagesSent 2
scalar EDVRPScalabilityNetwork.router[9] helloMessagesSent 2
scalar EDVRPScalabilityNetwork.router[14] helloMessagesSent 1
scalar EDVRPScalabilityNetwork.router[3] helloMessagesSent 3
scalar EDVRPScalabilityNetwork.router[7] helloMessagesSent 2
scalar EDVRPScalabilityNetwork.router[5] helloMessagesSent 3
scalar EDVRPScalabilityNetwork.router[1] helloMessagesSent 3
scalar EDVRPScalabilityNetwork.router[8] helloMessagesSent 2
scalar EDVRPScalabilityNetwork.router[4] helloMessagesSent 3
scalar EDVRPScalabilityNetwork.router[2] helloMessagesSent 3
scalar EDVRPScalabilityNetwork.router[12] helloMessagesSent 2
scalar EDVRPScalabilityNetwork.router[13] helloMessagesSent 2
scalar EDVRPScalabilityNetwork.router[11] helloMessagesSent 2
scalar EDVRPScalabilityNetwork.router[0] helloMessagesSent 2
scalar EDVRPScalabilityNetwork.router[10] helloMessagesSent 2
scalar EDVRPScalabilityNetwork.router[6] helloMessagesSent 2
scalar EDVRPScalabilityNetwork.router[9] helloMessagesSent 2
scalar EDVRPScalabilityNetwork.router[14] helloMessagesSent 1
scalar EDVRPScalabilityNetwork.router[3] helloMessagesSent 3
scalar EDVRPScalabilityNetwork.router[7] helloMessagesSent 2
scalar EDVRPScalabilityNetwork.router[5] helloMessagesSent 3
scalar EDVRPScalabilityNetwork.router[1] helloMessagesSent 3
scalar EDVRPScalabilityNetwork.router[8] helloMessagesSent 2
scalar EDVRPScalabilityNetwork.router[4] helloMessagesSent 3
scalar EDVRPScalabilityNetwork.router[2] helloMessagesSent 3
scalar EDVRPScalabilityNetwork.router[12] helloMessagesSent 2
scalar EDVRPScalabilityNetwork.router[13] helloMessagesSent 2
scalar EDVRPScalabilityNetwork.router[11] helloMessagesSent 2
scalar EDVRPScalabilityNetwork.router[0] helloMessagesSent 2
scalar EDVRPScalabilityNetwork.router[10] helloMessagesSent 2
scalar EDVRPScalabilityNetwork.router[6] helloMessagesSent 2
scalar EDVRPScalabilityNetwork.router[9] helloMessagesSent 2
scalar EDVRPScalabilityNetwork.router[14] helloMessagesSent 1
scalar EDVRPScalabilityNetwork.router[3] helloMessagesSent 3
scalar EDVRPScalabilityNetwork.router[7] helloMessagesSent 2
scalar EDVRPScalabilityNetwork.router[5] helloMessagesSent 3
scalar EDVRPScalabilityNetwork.router[1] helloMessagesSent 3
scalar EDVRPScalabilityNetwork.router[8] helloMessagesSent 2
scalar EDVRPScalabilityNetwork.router[4] helloMessagesSent 3
scalar EDVRPScalabilityNetwork.router[2] helloMessagesSent 3
scalar EDVRPScalabilityNetwork.router[12] helloMessagesSent 2
scalar EDVRPScalabilityNetwork.router[13] helloMessagesSent 2
scalar EDVRPScalabilityNetwork.router[11] helloMessagesSent 2
scalar EDVRPScalabilityNetwork.router[0] helloMessagesSent 2
scalar EDVRPScalabilityNetwork.router[10] helloMessagesSent 2
scalar EDVRPScalabilityNetwork.router[6] helloMessagesSent 2
scalar EDVRPScalabilityNetwork.router[9] helloMessagesSent 2
scalar EDVRPScalabilityNetwork.router[14] helloMessagesSent 1
scalar EDVRPScalabilityNetwork.router[3] helloMessagesSent 3
scalar EDVRPScalabilityNetwork.router[7] helloMessagesSent 2
scalar EDVRPScalabilityNetwork.router[5] helloMessagesSent 3
scalar EDVRPScalabilityNetwork.router[1] helloMessagesSent 3
scalar EDVRPScalabilityNetwork.router[8] helloMessagesSent 2
scalar EDVRPScalabilityNetwork.router[4] helloMessagesSent 3
scalar EDVRPScalabilityNetwork.router[2] helloMessagesSent 3
scalar EDVRPScalabilityNetwork.router[12] helloMessagesSent 2
scalar EDVRPScalabilityNetwork.router[13] helloMessagesSent 2
scalar EDVRPScalabilityNetwork.router[11] helloMessagesSent 2
scalar EDVRPScalabilityNetwork.router[0] helloMessagesSent 2
scalar EDVRPScalabilityNetwork.router[10] helloMessagesSent 2
scalar EDVRPScalabilityNetwork.router[6] helloMessagesSent 2
scalar EDVRPScalabilityNetwork.router[9] helloMessagesSent 2
scalar EDVRPScalabilityNetwork.router[14] helloMessagesSent 1
scalar EDVRPScalabilityNetwork.router[3] helloMessagesSent 3
scalar EDVRPScalabilityNetwork.router[7] helloMessagesSent 2
scalar EDVRPScalabilityNetwork.router[5] helloMessagesSent 3
scalar EDVRPScalabilityNetwork.router[1] helloMessagesSent 3
scalar EDVRPScalabilityNetwork.router[8] helloMessagesSent 2
scalar EDVRPScalabilityNetwork.router[4] helloMessagesSent 3
scalar EDVRPScalabilityNetwork.router[2] helloMessagesSent 3
scalar EDVRPScalabilityNetwork.router[12] helloMessagesSent 2
scalar EDVRPScalabilityNetwork.router[13] helloMessagesSent 2
scalar EDVRPScalabilityNetwork.router[11] helloMessagesSent 2
scalar EDVRPScalabilityNetwork.router[0] helloMessagesSent 2
scalar EDVRPScalabilityNetwork.router[10] helloMessagesSent 2
scalar EDVRPScalabilityNetwork.router[6] helloMessagesSent 2
scalar EDVRPScalabilityNetwork.router[9] helloMessagesSent 2
scalar EDVRPScalabilityNetwork.router[14] helloMessagesSent 1
scalar EDVRPScalabilityNetwork.router[3] helloMessagesSent 3
scalar EDVRPScalabilityNetwork.router[7] helloMessagesSent 2
scalar EDVRPScalabilityNetwork.router[5] helloMessagesSent 3
scalar EDVRPScalabilityNetwork.router[1] helloMessagesSent 3
scalar EDVRPScalabilityNetwork.router[8] helloMessagesSent 2
scalar EDVRPScalabilityNetwork.router[4] helloMessagesSent 3
scalar EDVRPScalabilityNetwork.router[2] helloMessagesSent 3
scalar EDVRPScalabilityNetwork.router[12] helloMessagesSent 2
scalar EDVRPScalabilityNetwork.router[13] helloMessagesSent 2
scalar EDVRPScalabilityNetwork.router[11] helloMessagesSent 2
scalar EDVRPScalabilityNetwork.router[0] helloMessagesSent 2
scalar EDVRPScalabilityNetwork.router[10] helloMessagesSent 2
scalar EDVRPScalabilityNetwork.router[6] helloMessagesSent 2
scalar EDVRPScalabilityNetwork.router[9] helloMessagesSent 2
scalar EDVRPScalabilityNetwork.router[14] helloMessagesSent 1
scalar EDVRPScalabilityNetwork.router[3] helloMessagesSent 3
scalar EDVRPScalabilityNetwork.router[7] helloMessagesSent 2
scalar EDVRPScalabilityNetwork.router[5] helloMessagesSent 3
scalar EDVRPScalabilityNetwork.router[1] helloMessagesSent 3
scalar EDVRPScalabilityNetwork.router[8] helloMessagesSent 2
scalar EDVRPScalabilityNetwork.router[4] helloMessagesSent 3
scalar EDVRPScalabilityNetwork.router[2] helloMessagesSent 3
scalar EDVRPScalabilityNetwork.router[12] helloMessagesSent 2
scalar EDVRPScalabilityNetwork.router[13] helloMessagesSent 2
scalar EDVRPScalabilityNetwork.router[11] helloMessagesSent 2
scalar EDVRPScalabilityNetwork.router[0] helloMessagesSent 2
scalar EDVRPScalabilityNetwork.router[10] helloMessagesSent 2
scalar EDVRPScalabilityNetwork.router[6] helloMessagesSent 2
scalar EDVRPScalabilityNetwork.router[9] helloMessagesSent 2
scalar EDVRPScalabilityNetwork.router[14] helloMessagesSent 1
scalar EDVRPScalabilityNetwork.router[3] helloMessagesSent 3
scalar EDVRPScalabilityNetwork.router[7] helloMessagesSent 2
scalar EDVRPScalabilityNetwork.router[5] helloMessagesSent 3
scalar EDVRPScalabilityNetwork.router[1] helloMessagesSent 3
scalar EDVRPScalabilityNetwork.router[8] helloMessagesSent 2
scalar EDVRPScalabilityNetwork.router[4] helloMessagesSent 3
scalar EDVRPScalabilityNetwork.router[2] helloMessagesSent 3
scalar EDVRPScalabilityNetwork.router[12] helloMessagesSent 2
scalar EDVRPScalabilityNetwork.router[13] helloMessagesSent 2
scalar EDVRPScalabilityNetwork.router[11] helloMessagesSent 2
scalar EDVRPScalabilityNetwork.router[0] helloMessagesSent 2
scalar EDVRPScalabilityNetwork.router[10] helloMessagesSent 2
scalar EDVRPScalabilityNetwork.router[6] helloMessagesSent 2
scalar EDVRPScalabilityNetwork.router[9] helloMessagesSent 2
scalar EDVRPScalabilityNetwork.router[14] helloMessagesSent 1
scalar EDVRPScalabilityNetwork.router[3] helloMessagesSent 3
scalar EDVRPScalabilityNetwork.router[7] helloMessagesSent 2
scalar EDVRPScalabilityNetwork.router[5] helloMessagesSent 3
scalar EDVRPScalabilityNetwork.router[1] helloMessagesSent 3
scalar EDVRPScalabilityNetwork.router[8] helloMessagesSent 2
scalar EDVRPScalabilityNetwork.router[4] helloMessagesSent 3
scalar EDVRPScalabilityNetwork.router[2] helloMessagesSent 3
scalar EDVRPScalabilityNetwork.router[12] helloMessagesSent 2
scalar EDVRPScalabilityNetwork.router[13] helloMessagesSent 2
scalar EDVRPScalabilityNetwork.router[11] helloMessagesSent 2
scalar EDVRPScalabilityNetwork.router[0] helloMessagesSent 2
scalar EDVRPScalabilityNetwork.router[10] helloMessagesSent 2
scalar EDVRPScalabilityNetwork.router[6] helloMessagesSent 2
scalar EDVRPScalabilityNetwork.router[9] helloMessagesSent 2
scalar EDVRPScalabilityNetwork.router[14] helloMessagesSent 1
scalar EDVRPScalabilityNetwork.router[3] helloMessagesSent 3
scalar EDVRPScalabilityNetwork.router[7] helloMessagesSent 2
scalar EDVRPScalabilityNetwork.router[5] helloMessagesSent 3
scalar EDVRPScalabilityNetwork.router[1] helloMessagesSent 3
scalar EDVRPScalabilityNetwork.router[8] helloMessagesSent 2
scalar EDVRPScalabilityNetwork.router[4] helloMessagesSent 3
scalar EDVRPScalabilityNetwork.router[2] helloMessagesSent 3
scalar EDVRPScalabilityNetwork.router[12] helloMessagesSent 2
scalar EDVRPScalabilityNetwork.router[13] helloMessagesSent 2
scalar EDVRPScalabilityNetwork.router[11] helloMessagesSent 2
scalar EDVRPScalabilityNetwork.router[0] helloMessagesSent 2
scalar EDVRPScalabilityNetwork.router[10] helloMessagesSent 2
scalar EDVRPScalabilityNetwork.router[6] helloMessagesSent 2
scalar EDVRPScalabilityNetwork.router[9] helloMessagesSent 2
scalar EDVRPScalabilityNetwork.router[14] helloMessagesSent 1
scalar EDVRPScalabilityNetwork.router[3] helloMessagesSent 3
scalar EDVRPScalabilityNetwork.router[7] helloMessagesSent 2
scalar EDVRPScalabilityNetwork.router[5] helloMessagesSent 3
scalar EDVRPScalabilityNetwork.router[1] helloMessagesSent 3
scalar EDVRPScalabilityNetwork.router[8] helloMessagesSent 2
scalar EDVRPScalabilityNetwork.router[4] helloMessagesSent 3
scalar EDVRPScalabilityNetwork.router[2] helloMessagesSent 3
scalar EDVRPScalabilityNetwork.router[12] helloMessagesSent 2
scalar EDVRPScalabilityNetwork.router[13] helloMessagesSent 2
scalar EDVRPScalabilityNetwork.router[11] helloMessagesSent 2
scalar EDVRPScalabilityNetwork.router[0] helloMessagesSent 2
scalar EDVRPScalabilityNetwork.router[10] helloMessagesSent 2
scalar EDVRPScalabilityNetwork.router[6] helloMessagesSent 2
scalar EDVRPScalabilityNetwork.router[9] helloMessagesSent 2
scalar EDVRPScalabilityNetwork.router[14] helloMessagesSent 1
scalar EDVRPScalabilityNetwork.router[3] helloMessagesSent 3
scalar EDVRPScalabilityNetwork.router[7] helloMessagesSent 2
scalar EDVRPScalabilityNetwork.router[5] helloMessagesSent 3
scalar EDVRPScalabilityNetwork.router[1] helloMessagesSent 3
scalar EDVRPScalabilityNetwork.router[8] helloMessagesSent 2
scalar EDVRPScalabilityNetwork.router[4] helloMessagesSent 3
scalar EDVRPScalabilityNetwork.router[2] helloMessagesSent 3
scalar EDVRPScalabilityNetwork.router[12] helloMessagesSent 2
scalar EDVRPScalabilityNetwork.router[13] helloMessagesSent 2
scalar EDVRPScalabilityNetwork.router[11] helloMessagesSent 2
scalar EDVRPScalabilityNetwork.router[0] helloMessagesSent 2
scalar EDVRPScalabilityNetwork.router[10] helloMessagesSent 2
scalar EDVRPScalabilityNetwork.router[6] helloMessagesSent 2
scalar EDVRPScalabilityNetwork.router[9] helloMessagesSent 2
scalar EDVRPScalabilityNetwork.router[14] helloMessagesSent 1
scalar EDVRPScalabilityNetwork.router[3] helloMessagesSent 3
scalar EDVRPScalabilityNetwork.router[7] helloMessagesSent 2
scalar EDVRPScalabilityNetwork.router[5] helloMessagesSent 3
scalar EDVRPScalabilityNetwork.router[1] helloMessagesSent 3
scalar EDVRPScalabilityNetwork.router[8] helloMessagesSent 2
scalar EDVRPScalabilityNetwork.router[4] helloMessagesSent 3
scalar EDVRPScalabilityNetwork.router[2] helloMessagesSent 3
scalar EDVRPScalabilityNetwork.router[12] helloMessagesSent 2
scalar EDVRPScalabilityNetwork.router[13] helloMessagesSent 2
scalar EDVRPScalabilityNetwork.router[11] helloMessagesSent 2
scalar EDVRPScalabilityNetwork.router[0] helloMessagesSent 2
scalar EDVRPScalabilityNetwork.router[10] helloMessagesSent 2
scalar EDVRPScalabilityNetwork.router[6] helloMessagesSent 2
scalar EDVRPScalabilityNetwork.router[9] helloMessagesSent 2
scalar EDVRPScalabilityNetwork.router[14] helloMessagesSent 1
scalar EDVRPScalabilityNetwork.router[3] helloMessagesSent 3
scalar EDVRPScalabilityNetwork.router[7] helloMessagesSent 2
scalar EDVRPScalabilityNetwork.router[5] helloMessagesSent 3
scalar EDVRPScalabilityNetwork.router[1] helloMessagesSent 3
scalar EDVRPScalabilityNetwork.router[8] helloMessagesSent 2
scalar EDVRPScalabilityNetwork.router[4] helloMessagesSent 3
scalar EDVRPScalabilityNetwork.router[2] helloMessagesSent 3
scalar EDVRPScalabilityNetwork.router[12] helloMessagesSent 2
scalar EDVRPScalabilityNetwork.router[13] helloMessagesSent 2
scalar EDVRPScalabilityNetwork.router[11] helloMessagesSent 2
scalar EDVRPScalabilityNetwork.router[0] helloMessagesSent 2
scalar EDVRPScalabilityNetwork.router[10] helloMessagesSent 2
scalar EDVRPScalabilityNetwork.router[6] helloMessagesSent 2
scalar EDVRPScalabilityNetwork.router[9] helloMessagesSent 2
scalar EDVRPScalabilityNetwork.router[14] helloMessagesSent 1
scalar EDVRPScalabilityNetwork.router[3] helloMessagesSent 3
scalar EDVRPScalabilityNetwork.router[7] helloMessagesSent 2
scalar EDVRPScalabilityNetwork.router[5] helloMessagesSent 3
scalar EDVRPScalabilityNetwork.router[1] helloMessagesSent 3
scalar EDVRPScalabilityNetwork.router[8] helloMessagesSent 2
scalar EDVRPScalabilityNetwork.router[4] helloMessagesSent 3
scalar EDVRPScalabilityNetwork.router[2] helloMessagesSent 3
scalar EDVRPScalabilityNetwork.router[12] helloMessagesSent 2
scalar EDVRPScalabilityNetwork.router[13] helloMessagesSent 2
scalar EDVRPScalabilityNetwork.router[11] helloMessagesSent 2
scalar EDVRPScalabilityNetwork.router[0] helloMessagesSent 2
scalar EDVRPScalabilityNetwork.router[10] helloMessagesSent 2
scalar EDVRPScalabilityNetwork.router[6] helloMessagesSent 2
scalar EDVRPScalabilityNetwork.router[9] helloMessagesSent 2
scalar EDVRPScalabilityNetwork.router[14] helloMessagesSent 1
scalar EDVRPScalabilityNetwork.router[3] helloMessagesSent 3
scalar EDVRPScalabilityNetwork.router[7] helloMessagesSent 2
scalar EDVRPScalabilityNetwork.router[5] helloMessagesSent 3
scalar EDVRPScalabilityNetwork.router[1] helloMessagesSent 3
scalar EDVRPScalabilityNetwork.router[8] helloMessagesSent 2
scalar EDVRPScalabilityNetwork.router[4] helloMessagesSent 3
scalar EDVRPScalabilityNetwork.router[2] helloMessagesSent 3
scalar EDVRPScalabilityNetwork.router[12] helloMessagesSent 2
scalar EDVRPScalabilityNetwork.router[13] helloMessagesSent 2
scalar EDVRPScalabilityNetwork.router[11] helloMessagesSent 2
scalar EDVRPScalabilityNetwork.router[0] helloMessagesSent 2
scalar EDVRPScalabilityNetwork.router[10] helloMessagesSent 2
scalar EDVRPScalabilityNetwork.router[6] helloMessagesSent 2
scalar EDVRPScalabilityNetwork.router[9] helloMessagesSent 2
scalar EDVRPScalabilityNetwork.router[14] helloMessagesSent 1
scalar EDVRPScalabilityNetwork.router[3] helloMessagesSent 3
scalar EDVRPScalabilityNetwork.router[7] helloMessagesSent 2
scalar EDVRPScalabilityNetwork.router[5] helloMessagesSent 3
scalar EDVRPScalabilityNetwork.router[1] helloMessagesSent 3
scalar EDVRPScalabilityNetwork.router[8] helloMessagesSent 2
scalar EDVRPScalabilityNetwork.router[4] helloMessagesSent 3
scalar EDVRPScalabilityNetwork.router[2] helloMessagesSent 3
scalar EDVRPScalabilityNetwork.router[12] helloMessagesSent 2
scalar EDVRPScalabilityNetwork.router[13] helloMessagesSent 2
scalar EDVRPScalabilityNetwork.router[11] helloMessagesSent 2
scalar EDVRPScalabilityNetwork.router[0] helloMessagesSent 2
scalar EDVRPScalabilityNetwork.router[10] helloMessagesSent 2
scalar EDVRPScalabilityNetwork.router[6] helloMessagesSent 2
scalar EDVRPScalabilityNetwork.router[9] helloMessagesSent 2
scalar EDVRPScalabilityNetwork.router[14] helloMessagesSent 1
scalar EDVRPScalabilityNetwork.router[3] helloMessagesSent 3
scalar EDVRPScalabilityNetwork.router[7] helloMessagesSent 2
scalar EDVRPScalabilityNetwork.router[5] helloMessagesSent 3
scalar EDVRPScalabilityNetwork.router[1] helloMessagesSent 3
scalar EDVRPScalabilityNetwork.router[8] helloMessagesSent 2
scalar EDVRPScalabilityNetwork.router[4] helloMessagesSent 3
scalar EDVRPScalabilityNetwork.router[2] helloMessagesSent 3
scalar EDVRPScalabilityNetwork.router[12] helloMessagesSent 2
scalar EDVRPScalabilityNetwork.router[13] helloMessagesSent 2
scalar EDVRPScalabilityNetwork.router[11] helloMessagesSent 2
scalar EDVRPScalabilityNetwork.router[0] helloMessagesSent 2
scalar EDVRPScalabilityNetwork.router[10] helloMessagesSent 2
scalar EDVRPScalabilityNetwork.router[6] helloMessagesSent 2
scalar EDVRPScalabilityNetwork.router[9] helloMessagesSent 2
scalar EDVRPScalabilityNetwork.router[14] helloMessagesSent 1
scalar EDVRPScalabilityNetwork.router[3] helloMessagesSent 3
[...]
attr mutable ""
par EDVRPScalabilityNetwork.router[10].port$o[1].channel typename "\"ned.DatarateChannel\""
par EDVRPScalabilityNetwork.router[10].port$o[1].channel disabled false
attr mutable ""
par EDVRPScalabilityNetwork.router[10].port$o[1].channel delay 0.00136887s
attr mutable ""
attr unit s
par EDVRPScalabilityNetwork.router[10].port$o[1].channel datarate 4.72347e+07bps
attr mutable ""
attr unit bps
par EDVRPScalabilityNetwork.router[10].port$o[1].channel ber 0
attr mutable ""
par EDVRPScalabilityNetwork.router[10].port$o[1].channel per 0
attr mutable ""
par EDVRPScalabilityNetwork.router[11].port$o[0].channel typename "\"ned.DatarateChannel\""
par EDVRPScalabilityNetwork.router[11].port$o[0].channel disabled false
attr mutable ""
par EDVRPScalabilityNetwork.router[11].port$o[0].channel delay 0.00361364s
attr mutable ""
attr unit s
par EDVRPScalabilityNetwork.router[11].port$o[0].channel datarate 8.08425e+07bps
attr mutable ""
attr unit bps
par EDVRPScalabilityNetwork.router[11].port$o[0].channel ber 0
attr mutable ""
par EDVRPScalabilityNetwork.router[11].port$o[0].channel per 0
attr mutable ""
par EDVRPScalabilityNetwork.router[11].port$o[1].channel typename "\"ned.DatarateChannel\""
par EDVRPScalabilityNetwork.router[11].port$o[1].channel disabled false
attr mutable ""
par EDVRPScalabilityNetwork.router[11].port$o[1].channel delay 0.00323136s
attr mutable ""
attr unit s
par EDVRPScalabilityNetwork.router[11].port$o[1].channel datarate 7.42209e+07bps
attr mutable ""
attr unit bps
par EDVRPScalabilityNetwork.router[11].port$o[1].channel ber 0
attr mutable ""
par EDVRPScalabilityNetwork.router[11].port$o[1].channel per 0
attr mutable ""
par EDVRPScalabilityNetwork.router[12].port$o[0].channel typename "\"ned.DatarateChannel\""
par EDVRPScalabilityNetwork.router[12].port$o[0].channel disabled false
attr mutable ""
par EDVRPScalabilityNetwork.router[12].port$o[0].channel delay 0.00244626s
attr mutable ""
attr unit s
par EDVRPScalabilityNetwork.router[12].port$o[0].channel datarate 1.20806e+07bps
attr mutable ""
attr unit bps
par EDVRPScalabilityNetwork.router[12].port$o[0].channel ber 0
attr mutable ""
par EDVRPScalabilityNetwork.router[12].port$o[0].channel per 0
attr mutable ""
par EDVRPScalabilityNetwork.router[12].port$o[1].channel typename "\"ned.DatarateChannel\""
par EDVRPScalabilityNetwork.router[12].port$o[1].channel disabled false
attr mutable ""
par EDVRPScalabilityNetwork.router[12].port$o[1].channel delay 0.00190022s
attr mutable ""
attr unit s
par EDVRPScalabilityNetwork.router[12].port$o[1].channel datarate 3.84191e+07bps
attr mutable ""
attr unit bps
par EDVRPScalabilityNetwork.router[12].port$o[1].channel ber 0
attr mutable ""
par EDVRPScalabilityNetwork.router[12].port$o[1].channel per 0
attr mutable ""
par EDVRPScalabilityNetwork.router[13].port$o[0].channel typename "\"ned.DatarateChannel\""
par EDVRPScalabilityNetwork.router[13].port$o[0].channel disabled false
attr mutable ""
par EDVRPScalabilityNetwork.router[13].port$o[0].channel delay 0.00262608s
attr mutable ""
attr unit s
par EDVRPScalabilityNetwork.router[13].port$o[0].channel datarate 6.06493e+07bps
attr mutable ""
attr unit bps
par EDVRPScalabilityNetwork.router[13].port$o[0].channel ber 0
attr mutable ""
par EDVRPScalabilityNetwork.router[13].port$o[0].channel per 0
attr mutable ""
par EDVRPScalabilityNetwork.router[13].port$o[1].channel typename "\"ned.DatarateChannel\""
par EDVRPScalabilityNetwork.router[13].port$o[1].channel disabled false
attr mutable ""
par EDVRPScalabilityNetwork.router[13].port$o[1].channel delay 0.00287576s
attr mutable ""
attr unit s
par EDVRPScalabilityNetwork.router[13].port$o[1].channel datarate 7.73342e+07bps
attr mutable ""
attr unit bps
par EDVRPScalabilityNetwork.router[13].port$o[1].channel ber 0
attr mutable ""
par EDVRPScalabilityNetwork.router[13].port$o[1].channel per 0
attr mutable ""
par EDVRPScalabilityNetwork.router[14].port$o[0].channel typename "\"ned.DatarateChannel\""
par EDVRPScalabilityNetwork.router[14].port$o[0].channel disabled false
attr mutable ""
par EDVRPScalabilityNetwork.router[14].port$o[0].channel delay 0.00207694s
attr mutable ""
attr unit s
par EDVRPScalabilityNetwork.router[14].port$o[0].channel datarate 6.48661e+07bps
attr mutable ""
attr unit bps
par EDVRPScalabilityNetwork.router[14].port$o[0].channel ber 0
attr mutable ""
par EDVRPScalabilityNetwork.router[14].port$o[0].channel per 0
attr mutable ""
par EDVRPScalabilityNetwork.router[0].port$o[1].channel typename "\"ned.DatarateChannel\""
par EDVRPScalabilityNetwork.router[0].port$o[1].channel disabled false
attr mutable ""
par EDVRPScalabilityNetwork.router[0].port$o[1].channel delay 0.00375076s
attr mutable ""
attr unit s
par EDVRPScalabilityNetwork.router[0].port$o[1].channel datarate 8.05032e+07bps
attr mutable ""
attr unit bps
par EDVRPScalabilityNetwork.router[0].port$o[1].channel ber 0
attr mutable ""
par EDVRPScalabilityNetwork.router[0].port$o[1].channel per 0
attr mutable ""
par EDVRPScalabilityNetwork.router[3].port$o[2].channel typename "\"ned.DatarateChannel\""
par EDVRPScalabilityNetwork.router[3].port$o[2].channel disabled false
attr mutable ""
par EDVRPScalabilityNetwork.router[3].port$o[2].channel delay 0.00474612s
attr mutable ""
attr unit s
par EDVRPScalabilityNetwork.router[3].port$o[2].channel datarate 1.48045e+08bps
attr mutable ""
attr unit bps
par EDVRPScalabilityNetwork.router[3].port$o[2].channel ber 0
attr mutable ""
par EDVRPScalabilityNetwork.router[3].port$o[2].channel per 0
attr mutable ""
par EDVRPScalabilityNetwork.router[1].port$o[2].channel typename "\"ned.DatarateChannel\""
par EDVRPScalabilityNetwork.router[1].port$o[2].channel disabled false
attr mutable ""
par EDVRPScalabilityNetwork.router[1].port$o[2].channel delay 0.0071632s
attr mutable ""
attr unit s
par EDVRPScalabilityNetwork.router[1].port$o[2].channel datarate 1.49403e+08bps
attr mutable ""
attr unit bps
par EDVRPScalabilityNetwork.router[1].port$o[2].channel ber 0
attr mutable ""
par EDVRPScalabilityNetwork.router[1].port$o[2].channel per 0
attr mutable ""
par EDVRPScalabilityNetwork.router[4].port$o[2].channel typename "\"ned.DatarateChannel\""
par EDVRPScalabilityNetwork.router[4].port$o[2].channel disabled false
attr mutable ""
par EDVRPScalabilityNetwork.router[4].port$o[2].channel delay 0.00551752s
attr mutable ""
attr unit s
par EDVRPScalabilityNetwork.router[4].port$o[2].channel datarate 1.80661e+08bps
attr mutable ""
attr unit bps
par EDVRPScalabilityNetwork.router[4].port$o[2].channel ber 0
attr mutable ""
par EDVRPScalabilityNetwork.router[4].port$o[2].channel per 0
attr mutable ""
par EDVRPScalabilityNetwork.router[2].port$o[2].channel typename "\"ned.DatarateChannel\""
par EDVRPScalabilityNetwork.router[2].port$o[2].channel disabled false
attr mutable ""
par EDVRPScalabilityNetwork.router[2].port$o[2].channel delay 0.00370093s
attr mutable ""
attr unit s
par EDVRPScalabilityNetwork.router[2].port$o[2].channel datarate 1.71684e+08bps
attr mutable ""
attr unit bps
par EDVRPScalabilityNetwork.router[2].port$o[2].channel ber 0
attr mutable ""
par EDVRPScalabilityNetwork.router[2].port$o[2].channel per 0
attr mutable ""
par EDVRPScalabilityNetwork.router[5].port$o[2].channel typename "\"ned.DatarateChannel\""
par EDVRPScalabilityNetwork.router[5].port$o[2].channel disabled false
attr mutable ""
par EDVRPScalabilityNetwork.router[5].port$o[2].channel delay 0.00366787s
attr mutable ""
attr unit s
par EDVRPScalabilityNetwork.router[5].port$o[2].channel datarate 1.06119e+08bps
attr mutable ""
attr unit bps
par EDVRPScalabilityNetwork.router[5].port$o[2].channel ber 0
attr mutable ""
par EDVRPScalabilityNetwork.router[5].port$o[2].channel per 0
attr mutable ""
par EDVRPScalabilityNetwork.router[0] typename "\"edvrp.EDVRPRouter\""
par EDVRPScalabilityNetwork.router[0] routerId 1
par EDVRPScalabilityNetwork.router[0] helloInterval 3s
attr unit s
par EDVRPScalabilityNetwork.router[0] holdTimeout 12s
attr unit s
par EDVRPScalabilityNetwork.router[0] routeTimeout 25s
attr unit s
par EDVRPScalabilityNetwork.router[0] updateInterval 8s
attr unit s
par EDVRPScalabilityNetwork.router[0] linkBandwidth 59.5718Mbps
attr unit Mbps
par EDVRPScalabilityNetwork.router[0] linkLatency 1.63652ms
attr unit ms
par EDVRPScalabilityNetwork.router[0] alpha 1e+06
par EDVRPScalabilityNetwork.router[0] beta 1
scalar EDVRPScalabilityNetwork.router[0] finalTableSize 15
scalar EDVRPScalabilityNetwork.router[0] finalSimTime 500
scalar EDVRPScalabilityNetwork.router[0] routerId 1
par EDVRPScalabilityNetwork.router[1] typename "\"edvrp.EDVRPRouter\""
par EDVRPScalabilityNetwork.router[1] routerId 2
par EDVRPScalabilityNetwork.router[1] helloInterval 3s
attr unit s
par EDVRPScalabilityNetwork.router[1] holdTimeout 12s
attr unit s
par EDVRPScalabilityNetwork.router[1] routeTimeout 25s
attr unit s
par EDVRPScalabilityNetwork.router[1] updateInterval 8s
attr unit s
par EDVRPScalabilityNetwork.router[1] linkBandwidth 73.7333Mbps
attr unit Mbps
par EDVRPScalabilityNetwork.router[1] linkLatency 8.55954ms
attr unit ms
par EDVRPScalabilityNetwork.router[1] alpha 1e+06
par EDVRPScalabilityNetwork.router[1] beta 1
scalar EDVRPScalabilityNetwork.router[1] finalTableSize 15
scalar EDVRPScalabilityNetwork.router[1] finalSimTime 500
scalar EDVRPScalabilityNetwork.router[1] routerId 2
par EDVRPScalabilityNetwork.router[2] typename "\"edvrp.EDVRPRouter\""
par EDVRPScalabilityNetwork.router[2] routerId 3
par EDVRPScalabilityNetwork.router[2] helloInterval 3s
attr unit s
par EDVRPScalabilityNetwork.router[2] holdTimeout 12s
attr unit s
par EDVRPScalabilityNetwork.router[2] routeTimeout 25s
attr unit s
par EDVRPScalabilityNetwork.router[2] updateInterval 8s
attr unit s
par EDVRPScalabilityNetwork.router[2] linkBandwidth 36.1814Mbps
attr unit Mbps
par EDVRPScalabilityNetwork.router[2] linkLatency 2.09196ms
attr unit ms
par EDVRPScalabilityNetwork.router[2] alpha 1e+06
par EDVRPScalabilityNetwork.router[2] beta 1
scalar EDVRPScalabilityNetwork.router[2] finalTableSize 15
scalar EDVRPScalabilityNetwork.router[2] finalSimTime 500
scalar EDVRPScalabilityNetwork.router[2] routerId 3
par EDVRPScalabilityNetwork.router[3] typename "\"edvrp.EDVRPRouter\""
par EDVRPScalabilityNetwork.router[3] routerId 4
par EDVRPScalabilityNetwork.router[3] helloInterval 3s
attr unit s
par EDVRPScalabilityNetwork.router[3] holdTimeout 12s
attr unit s
par EDVRPScalabilityNetwork.router[3] routeTimeout 25s
attr unit s
par EDVRPScalabilityNetwork.router[3] updateInterval 8s
attr unit s
par EDVRPScalabilityNetwork.router[3] linkBandwidth 55.9745Mbps
attr unit Mbps
par EDVRPScalabilityNetwork.router[3] linkLatency 6.1238ms
attr unit ms
par EDVRPScalabilityNetwork.router[3] alpha 1e+06
par EDVRPScalabilityNetwork.router[3] beta 1
scalar EDVRPScalabilityNetwork.router[3] finalTableSize 15
scalar EDVRPScalabilityNetwork.router[3] finalSimTime 500
scalar EDVRPScalabilityNetwork.router[3] routerId 4
par EDVRPScalabilityNetwork.router[4] typename "\"edvrp.EDVRPRouter\""
par EDVRPScalabilityNetwork.router[4] routerId 5
par EDVRPScalabilityNetwork.router[4] helloInterval 3s
attr unit s
par EDVRPScalabilityNetwork.router[4] holdTimeout 12s
attr unit s
par EDVRPScalabilityNetwork.router[4] routeTimeout 25s
attr unit s
par EDVRPScalabilityNetwork.router[4] updateInterval 8s
attr unit s
par EDVRPScalabilityNetwork.router[4] linkBandwidth 90.3652Mbps
attr unit Mbps
par EDVRPScalabilityNetwork.router[4] linkLatency 4.93356ms
attr unit ms
par EDVRPScalabilityNetwork.router[4] alpha 1e+06
par EDVRPScalabilityNetwork.router[4] beta 1
scalar EDVRPScalabilityNetwork.router[4] finalTableSize 15
scalar EDVRPScalabilityNetwork.router[4] finalSimTime 500
scalar EDVRPScalabilityNetwork.router[4] routerId 5
par EDVRPScalabilityNetwork.router[5] typename "\"edvrp.EDVRPRouter\""
par EDVRPScalabilityNetwork.router[5] routerId 6
par EDVRPScalabilityNetwork.router[5] helloInterval 3s
attr unit s
par EDVRPScalabilityNetwork.router[5] holdTimeout 12s
attr unit s
par EDVRPScalabilityNetwork.router[5] routeTimeout 25s
attr unit s
par EDVRPScalabilityNetwork.router[5] updateInterval 8s
attr unit s
par EDVRPScalabilityNetwork.router[5] linkBandwidth 90.6664Mbps
attr unit Mbps
par EDVRPScalabilityNetwork.router[5] linkLatency 1.16873ms
attr unit ms
par EDVRPScalabilityNetwork.router[5] alpha 1e+06
par EDVRPScalabilityNetwork.router[5] beta 1
scalar EDVRPScalabilityNetwork.router[5] finalTableSize 15
scalar EDVRPScalabilityNetwork.router[5] finalSimTime 500
scalar EDVRPScalabilityNetwork.router[5] routerId 6
par EDVRPScalabilityNetwork.router[6] typename "\"edvrp.EDVRPRouter\""
par EDVRPScalabilityNetwork.router[6] routerId 7
par EDVRPScalabilityNetwork.router[6] helloInterval 3s
attr unit s
par EDVRPScalabilityNetwork.router[6] holdTimeout 12s
attr unit s
par EDVRPScalabilityNetwork.router[6] routeTimeout 25s
attr unit s
par EDVRPScalabilityNetwork.router[6] updateInterval 8s
attr unit s
par EDVRPScalabilityNetwork.router[6] linkBandwidth 21.3027Mbps
attr unit Mbps
par EDVRPScalabilityNetwork.router[6] linkLatency 1.36568ms
attr unit ms
par EDVRPScalabilityNetwork.router[6] alpha 1e+06
par EDVRPScalabilityNetwork.router[6] beta 1
scalar EDVRPScalabilityNetwork.router[6] finalTableSize 15
scalar EDVRPScalabilityNetwork.router[6] finalSimTime 500
scalar EDVRPScalabilityNetwork.router[6] routerId 7
par EDVRPScalabilityNetwork.router[7] typename "\"edvrp.EDVRPRouter\""
par EDVRPScalabilityNetwork.router[7] routerId 8
par EDVRPScalabilityNetwork.router[7] helloInterval 3s
attr unit s
par EDVRPScalabilityNetwork.router[7] holdTimeout 12s
attr unit s
par EDVRPScalabilityNetwork.router[7] routeTimeout 25s
attr unit s
par EDVRPScalabilityNetwork.router[7] updateInterval 8s
attr unit s
par EDVRPScalabilityNetwork.router[7] linkBandwidth 28.6519Mbps
attr unit Mbps
par EDVRPScalabilityNetwork.router[7] linkLatency 3.23099ms
attr unit ms
par EDVRPScalabilityNetwork.router[7] alpha 1e+06
par EDVRPScalabilityNetwork.router[7] beta 1
scalar EDVRPScalabilityNetwork.router[7] finalTableSize 15
scalar EDVRPScalabilityNetwork.router[7] finalSimTime 500
scalar EDVRPScalabilityNetwork.router[7] routerId 8
par EDVRPScalabilityNetwork.router[8] typename "\"edvrp.EDVRPRouter\""
par EDVRPScalabilityNetwork.router[8] routerId 9
par EDVRPScalabilityNetwork.router[8] helloInterval 3s
attr unit s
par EDVRPScalabilityNetwork.router[8] holdTimeout 12s
attr unit s
par EDVRPScalabilityNetwork.router[8] routeTimeout 25s
attr unit s
par EDVRPScalabilityNetwork.router[8] updateInterval 8s
attr unit s
par EDVRPScalabilityNetwork.router[8] linkBandwidth 14.632Mbps
attr unit Mbps
par EDVRPScalabilityNetwork.router[8] linkLatency 1.84196ms
attr unit ms
par EDVRPScalabilityNetwork.router[8] alpha 1e+06
par EDVRPScalabilityNetwork.router[8] beta 1
scalar EDVRPScalabilityNetwork.router[8] finalTableSize 15
scalar EDVRPScalabilityNetwork.router[8] finalSimTime 500
scalar EDVRPScalabilityNetwork.router[8] routerId 9
par EDVRPScalabilityNetwork.router[9] typename "\"edvrp.EDVRPRouter\""
par EDVRPScalabilityNetwork.router[9] routerId 10
par EDVRPScalabilityNetwork.router[9] helloInterval 3s
attr unit s
par EDVRPScalabilityNetwork.router[9] holdTimeout 12s
attr unit s
par EDVRPScalabilityNetwork.router[9] routeTimeout 25s
attr unit s
par EDVRPScalabilityNetwork.router[9] updateInterval 8s
attr unit s
par EDVRPScalabilityNetwork.router[9] linkBandwidth 49.6729Mbps
attr unit Mbps
par EDVRPScalabilityNetwork.router[9] linkLatency 7.25341ms
attr unit ms
par EDVRPScalabilityNetwork.router[9] alpha 1e+06
par EDVRPScalabilityNetwork.router[9] beta 1
scalar EDVRPScalabilityNetwork.router[9] finalTableSize 15
scalar EDVRPScalabilityNetwork.router[9] finalSimTime 500
scalar EDVRPScalabilityNetwork.router[9] routerId 10
par EDVRPScalabilityNetwork.router[10] typename "\"edvrp.EDVRPRouter\""
par EDVRPScalabilityNetwork.router[10] routerId 11
par EDVRPScalabilityNetwork.router[10] helloInterval 3s
attr unit s
par EDVRPScalabilityNetwork.router[10] holdTimeout 12s
attr unit s
par EDVRPScalabilityNetwork.router[10] routeTimeout 25s
attr unit s
par EDVRPScalabilityNetwork.router[10] updateInterval 8s
attr unit s
par EDVRPScalabilityNetwork.router[10] linkBandwidth 12.6889Mbps
attr unit Mbps
par EDVRPScalabilityNetwork.router[10] linkLatency 2.30833ms
attr unit ms
par EDVRPScalabilityNetwork.router[10] alpha 1e+06
par EDVRPScalabilityNetwork.router[10] beta 1
scalar EDVRPScalabilityNetwork.router[10] finalTableSize 15
scalar EDVRPScalabilityNetwork.router[10] finalSimTime 500
scalar EDVRPScalabilityNetwork.router[10] routerId 11
par EDVRPScalabilityNetwork.router[11] typename "\"edvrp.EDVRPRouter\""
par EDVRPScalabilityNetwork.router[11] routerId 12
par EDVRPScalabilityNetwork.router[11] helloInterval 3s
attr unit s
par EDVRPScalabilityNetwork.router[11] holdTimeout 12s
attr unit s
par EDVRPScalabilityNetwork.router[11] routeTimeout 25s
attr unit s
par EDVRPScalabilityNetwork.router[11] updateInterval 8s
attr unit s
par EDVRPScalabilityNetwork.router[11] linkBandwidth 51.115Mbps
attr unit Mbps
par EDVRPScalabilityNetwork.router[11] linkLatency 5.07855ms
attr unit ms
par EDVRPScalabilityNetwork.router[11] alpha 1e+06
par EDVRPScalabilityNetwork.router[11] beta 1
scalar EDVRPScalabilityNetwork.router[11] finalTableSize 15
scalar EDVRPScalabilityNetwork.router[11] finalSimTime 500
scalar EDVRPScalabilityNetwork.router[11] routerId 12
par EDVRPScalabilityNetwork.router[12] typename "\"edvrp.EDVRPRouter\""
par EDVRPScalabilityNetwork.router[12] routerId 13
par EDVRPScalabilityNetwork.router[12] helloInterval 3s
attr unit s
par EDVRPScalabilityNetwork.router[12] holdTimeout 12s
attr unit s
par EDVRPScalabilityNetwork.router[12] routeTimeout 25s
attr unit s
par EDVRPScalabilityNetwork.router[12] updateInterval 8s
attr unit s
par EDVRPScalabilityNetwork.router[12] linkBandwidth 68.423Mbps
attr unit Mbps
par EDVRPScalabilityNetwork.router[12] linkLatency 2.94019ms
attr unit ms
par EDVRPScalabilityNetwork.router[12] alpha 1e+06
par EDVRPScalabilityNetwork.router[12] beta 1
scalar EDVRPScalabilityNetwork.router[12] finalTableSize 15
scalar EDVRPScalabilityNetwork.router[12] finalSimTime 500
scalar EDVRPScalabilityNetwork.router[12] routerId 13
par EDVRPScalabilityNetwork.router[13] typename "\"edvrp.EDVRPRouter\""
par EDVRPScalabilityNetwork.router[13] routerId 14
par EDVRPScalabilityNetwork.router[13] helloInterval 3s
attr unit s
par EDVRPScalabilityNetwork.router[13] holdTimeout 12s
attr unit s
par EDVRPScalabilityNetwork.router[13] routeTimeout 25s
attr unit s
par EDVRPScalabilityNetwork.router[13] updateInterval 8s
attr unit s
par EDVRPScalabilityNetwork.router[13] linkBandwidth 35.0639Mbps
attr unit Mbps
par EDVRPScalabilityNetwork.router[13] linkLatency 4.18515ms
attr unit ms
par EDVRPScalabilityNetwork.router[13] alpha 1e+06
par EDVRPScalabilityNetwork.router[13] beta 1
scalar EDVRPScalabilityNetwork.router[13] finalTableSize 15
scalar EDVRPScalabilityNetwork.router[13] finalSimTime 500
scalar EDVRPScalabilityNetwork.router[13] routerId 14
par EDVRPScalabilityNetwork.router[14] typename "\"edvrp.EDVRPRouter\""
par EDVRPScalabilityNetwork.router[14] routerId 15
par EDVRPScalabilityNetwork.router[14] helloInterval 3s
attr unit s
par EDVRPScalabilityNetwork.router[14] holdTimeout 12s
attr unit s
par EDVRPScalabilityNetwork.router[14] routeTimeout 25s
attr unit s
par EDVRPScalabilityNetwork.router[14] updateInterval 8s
attr unit s
par EDVRPScalabilityNetwork.router[14] linkBandwidth 70.8629Mbps
attr unit Mbps
par EDVRPScalabilityNetwork.router[14] linkLatency 5.43372ms
attr unit ms
par EDVRPScalabilityNetwork.router[14] alpha 1e+06
par EDVRPScalabilityNetwork.router[14] beta 1
scalar EDVRPScalabilityNetwork.router[14] finalTableSize 15
scalar EDVRPScalabilityNetwork.router[14] finalSimTime 500
scalar EDVRPScalabilityNetwork.router[14] routerId 15
par EDVRPScalabilityNetwork typename "\"edvrp.simulations.EDVRPScalabilityNetwork\""
par EDVRPScalabilityNetwork numRouters 15

